<?xml version="1.0"?>
<trips>
<trip id="0" depart="1" from="-24082316#1" to="441514512#1" />
<trip id="1" depart="2" from="-435724020#1" to="-292339728#0" />
<trip id="2" depart="3" from="218557533#3" to="36888594#1" />
<trip id="3" depart="4" from="4694846#1" to="621319018#1" />
<trip id="4" depart="5" from="-218557533#3" to="706407770#1" />
<trip id="5" depart="6" from="-218557533#3" to="312901453-AddedOffRampEdge" />
<trip id="6" depart="7" from="-5120694#0" to="621319018#2" />
<trip id="7" depart="8" from="435650703" to="152759536#2-AddedOnRampEdge" />
<trip id="8" depart="9" from="26233255" to="319358171#3" />
<trip id="9" depart="10" from="435724020#1" to="178573357" />
<trip id="10" depart="11" from="145857394#2" to="441514510#3" />
<trip id="11" depart="12" from="218557533#4" to="26232400#3" />
<trip id="12" depart="13" from="-435650704" to="122890693#1" />
<trip id="13" depart="14" from="-143926576#0" to="24537963" />
<trip id="14" depart="15" from="26233255" to="441514510#3" />
<trip id="15" depart="16" from="4694846#2" to="-118967824" />
<trip id="16" depart="17" from="-483248512#3" to="255623937#0" />
<trip id="17" depart="18" from="4694846#0" to="24537970" />
<trip id="18" depart="19" from="145857394#0" to="-56175736#3" />
<trip id="19" depart="20" from="56175729#1" to="-56175736#2" />
<trip id="20" depart="21" from="145846249#0" to="312901453-AddedOffRampEdge" />
<trip id="21" depart="22" from="56175723#0" to="319345475" />
<trip id="22" depart="23" from="23891848#3" to="178573378" />
<trip id="23" depart="24" from="-23891848#0" to="-441514510#0" />
<trip id="24" depart="25" from="23891850#0" to="319358160#2" />
<trip id="25" depart="26" from="23699376" to="-441514510#3" />
<trip id="26" depart="27" from="24082316#1" to="178573357" />
<trip id="27" depart="28" from="434705482#0" to="433780232#1" />
<trip id="28" depart="29" from="124471125#3" to="36888713#3" />
<trip id="29" depart="30" from="-56460697#2" to="56175736#4" />
<trip id="30" depart="31" from="23890902#2" to="-24086005" />
<trip id="31" depart="32" from="23890930#0" to="26232400#1" />
<trip id="32" depart="33" from="26233470" to="-624682399" />
<trip id="33" depart="34" from="23891848#3" to="319358160#0" />
<trip id="34" depart="35" from="-218557533#4" to="122890693#1" />
<trip id="35" depart="36" from="24442538#2" to="23825880" />
<trip id="36" depart="37" from="35023161#1" to="435724105#1" />
<trip id="37" depart="38" from="145846249#0" to="178573357" />
<trip id="38" depart="39" from="56460697#2" to="-316762107#0" />
<trip id="39" depart="40" from="435724019" to="624682398" />
<trip id="40" depart="41" from="56175729#1" to="624682399" />
<trip id="41" depart="42" from="-23891848#2" to="152754829" />
<trip id="42" depart="43" from="59145215" to="56175736#4" />
<trip id="43" depart="44" from="-483248512#4" to="441514510#3" />
<trip id="44" depart="45" from="218557533#2" to="316762107#0" />
<trip id="45" depart="46" from="59145215" to="319345475" />
<trip id="46" depart="47" from="438733288" to="316762106#1" />
<trip id="47" depart="48" from="-143930348" to="-292339728#1" />
<trip id="48" depart="49" from="-24442485#4" to="441514510#2" />
<trip id="49" depart="50" from="24082316#2" to="621319018#2" />
<trip id="50" depart="51" from="23891850#0" to="624682398" />
<trip id="51" depart="52" from="56460697#2" to="441514507#1" />
<trip id="52" depart="53" from="434705482#2" to="152759536#2" />
<trip id="53" depart="54" from="315088588#0" to="36888713#1" />
<trip id="54" depart="55" from="-218557533#3" to="24537970" />
<trip id="55" depart="56" from="-218557533#1" to="657430052#1" />
<trip id="56" depart="57" from="-23699376" to="441514502#2" />
<trip id="57" depart="58" from="218557533#4" to="-316762107#0" />
<trip id="58" depart="59" from="24442485#5" to="163148286#1" />
<trip id="59" depart="60" from="-218557533#0" to="-319358171#3" />
<trip id="60" depart="61" from="-56460698#0" to="152759536#2" />
<trip id="61" depart="62" from="435724019" to="23809965#1" />
<trip id="62" depart="63" from="4694846#4" to="56175736#3" />
<trip id="63" depart="64" from="-435724020#0" to="435724043#0" />
<trip id="64" depart="65" from="-59145215" to="-56175736#3" />
<trip id="65" depart="66" from="628761687#1" to="-319358171#0" />
<trip id="66" depart="67" from="-218557533#2" to="-56175736#0" />
<trip id="67" depart="68" from="23890902#2" to="-24086005" />
<trip id="68" depart="69" from="143926576#0" to="-56175736#3" />
<trip id="69" depart="70" from="145857394#2" to="23809965#1" />
<trip id="70" depart="71" from="27803812#2" to="319352697#1" />
<trip id="71" depart="72" from="26233470" to="441514510#4" />
<trip id="72" depart="73" from="-23891848#0" to="441514510#0" />
<trip id="73" depart="74" from="218557533#4" to="122890693#1" />
<trip id="74" depart="75" from="24442485#5" to="435724097" />
<trip id="75" depart="76" from="26233470" to="441514510#4" />
<trip id="76" depart="77" from="231307558" to="706407770#1" />
<trip id="77" depart="78" from="145857394#0" to="-56175736#3" />
<trip id="78" depart="79" from="35023161#1" to="-441514510#2" />
<trip id="79" depart="80" from="-218557533#4" to="316762106#2" />
<trip id="80" depart="81" from="23891848#2" to="319345474" />
<trip id="81" depart="82" from="-24442485#1" to="56175736#3" />
<trip id="82" depart="83" from="218557533#2" to="313816930#0" />
<trip id="83" depart="84" from="-56175729#2" to="319345475" />
<trip id="84" depart="85" from="145857394#1" to="26232400#2" />
<trip id="85" depart="86" from="433780223#1" to="313816930#1" />
<trip id="86" depart="87" from="145857402#0" to="441462668#0" />
<trip id="87" depart="88" from="24082316#0" to="-435724096" />
<trip id="88" depart="89" from="-23890930#1" to="319352697#1" />
<trip id="89" depart="90" from="145846249#0" to="178573357" />
<trip id="90" depart="91" from="143926576#0" to="-56175736#3" />
<trip id="91" depart="92" from="24082316#1" to="178573357" />
<trip id="92" depart="93" from="-24442485#3" to="433780231#0" />
<trip id="93" depart="94" from="23891848#1" to="56175736#1" />
<trip id="94" depart="95" from="628761687#1" to="-319358171#0" />
<trip id="95" depart="96" from="628761687#1" to="433780232#1" />
<trip id="96" depart="97" from="-23699376" to="36888594#0" />
<trip id="97" depart="98" from="56460698#1" to="56175736#3" />
<trip id="98" depart="99" from="-434705482#0" to="24086005" />
<trip id="99" depart="100" from="23891850#0" to="26232400#1" />
<trip id="100" depart="101" from="143926576#1" to="233930069#1" />
<trip id="101" depart="102" from="26233114#1" to="316762107#0" />
<trip id="102" depart="103" from="145857394#0" to="26232400#1" />
<trip id="103" depart="104" from="-483248512#3" to="152754829" />
<trip id="104" depart="105" from="-24101466" to="319352697#1" />
<trip id="105" depart="106" from="449387217#0" to="319358160#0" />
<trip id="106" depart="107" from="438733288" to="433780229#1" />
<trip id="107" depart="108" from="434705482#0" to="36888594#2" />
<trip id="108" depart="109" from="59145215" to="-292339728#1" />
<trip id="109" depart="110" from="4694846#1-AddedOffRampEdge" to="-435724096" />
<trip id="110" depart="111" from="56175729#2" to="441514507#3" />
<trip id="111" depart="112" from="23891850#0" to="-441514510#1" />
<trip id="112" depart="113" from="433780223#1" to="313816930#1" />
<trip id="113" depart="114" from="315088588#0" to="-441514510#2" />
<trip id="114" depart="115" from="-56460697#1" to="-24086005" />
<trip id="115" depart="116" from="-143930348" to="-319358171#2" />
<trip id="116" depart="117" from="4694846#1" to="621319018#1" />
<trip id="117" depart="118" from="-433777234#1" to="36888713#2" />
<trip id="118" depart="119" from="-23699376" to="36888594#0" />
<trip id="119" depart="120" from="435724129" to="178573357" />
<trip id="120" depart="121" from="24442538#2" to="124471097#0" />
<trip id="121" depart="122" from="433777234#1" to="-441514510#0" />
<trip id="122" depart="123" from="27803812#2" to="-435724105#1" />
<trip id="123" depart="124" from="218557533#4" to="26232400#3" />
<trip id="124" depart="125" from="26233486" to="122890694" />
<trip id="125" depart="126" from="-23890930#1" to="433780231#0" />
<trip id="126" depart="127" from="628761687#1" to="124471131" />
<trip id="127" depart="128" from="628761687#0" to="56175736#2" />
<trip id="128" depart="129" from="319352694#0" to="152754829" />
<trip id="129" depart="130" from="-433777235#1" to="-292339728#1" />
<trip id="130" depart="131" from="434705482#2" to="316762106#3" />
<trip id="131" depart="132" from="35023161#1" to="24086005" />
<trip id="132" depart="133" from="24442485#6" to="26232400#2" />
<trip id="133" depart="134" from="434705482#0" to="36888594#0" />
<trip id="134" depart="135" from="56460698#0" to="-435724101" />
<trip id="135" depart="136" from="5120694#4" to="122890694" />
<trip id="136" depart="137" from="24442538#2" to="292339728#1" />
<trip id="137" depart="138" from="23891848#3" to="152759536#2-AddedOnRampEdge" />
<trip id="138" depart="139" from="435724019" to="-319358171#2" />
<trip id="139" depart="140" from="-449387217#0" to="-56175736#4" />
<trip id="140" depart="141" from="23890902#2" to="-292339728#1" />
<trip id="141" depart="142" from="24082316#0" to="-316762107#0" />
<trip id="142" depart="143" from="435724017" to="-56175736#0" />
<trip id="143" depart="144" from="-218557533#3" to="-435724105#1" />
<trip id="144" depart="145" from="23891848#0" to="441514502#3" />
<trip id="145" depart="146" from="-218557533#0" to="-319358171#3" />
<trip id="146" depart="147" from="24082316#2" to="316762107#0" />
<trip id="147" depart="148" from="24442485#6" to="26232400#2" />
<trip id="148" depart="149" from="-623099270" to="-441514510#1" />
<trip id="149" depart="150" from="435724129" to="706407767#0" />
<trip id="150" depart="151" from="56460697#0" to="657430052#3" />
<trip id="151" depart="152" from="-433777235#1" to="621319018#1" />
<trip id="152" depart="153" from="435724019" to="621319018#1" />
<trip id="153" depart="154" from="434705482#0" to="36888594#2" />
<trip id="154" depart="155" from="145857394#1" to="292339728#0" />
<trip id="155" depart="156" from="435650703" to="-319358171#1" />
<trip id="156" depart="157" from="-434705482#0" to="-56175736#2" />
<trip id="157" depart="158" from="435650705" to="657430052#3" />
<trip id="158" depart="159" from="628761687#0" to="-118967822" />
<trip id="159" depart="160" from="145857394#1" to="435724101" />
<trip id="160" depart="161" from="-59145215" to="-319358171#2" />
<trip id="161" depart="162" from="5120694#1" to="319358171#3" />
<trip id="162" depart="163" from="-56175724" to="316762106#1" />
<trip id="163" depart="164" from="-143930348" to="435724096" />
<trip id="164" depart="165" from="23891848#2" to="-435724097" />
<trip id="165" depart="166" from="4694846#0" to="316762106#0" />
<trip id="166" depart="167" from="24082316#0" to="-435724096" />
<trip id="167" depart="168" from="-435724020#0" to="178573378" />
<trip id="168" depart="169" from="124471125#3" to="624682398" />
<trip id="169" depart="170" from="-23699376" to="435724105#1" />
<trip id="170" depart="171" from="-24442485#4" to="-292339728#1" />
<trip id="171" depart="172" from="-26233114#0" to="163148286#0" />
<trip id="172" depart="173" from="27803812#0" to="621319018#2" />
<trip id="173" depart="174" from="24442485#4" to="-56175736#0" />
<trip id="174" depart="175" from="434705482#2" to="152759536#2" />
<trip id="175" depart="176" from="435650703" to="152759536#2-AddedOnRampEdge" />
<trip id="176" depart="177" from="-483248512#3" to="435724107" />
<trip id="177" depart="178" from="23891850#1" to="441462668#1" />
<trip id="178" depart="179" from="145857402#0" to="316762106#0" />
<trip id="179" depart="180" from="-5120694#0" to="621319018#2" />
<trip id="180" depart="181" from="-483248512#3" to="706407767#0" />
<trip id="181" depart="182" from="-23891848#1" to="441514510#3" />
<trip id="182" depart="183" from="483248512#6" to="316762106#1" />
<trip id="183" depart="184" from="-435650705" to="26232392#1" />
<trip id="184" depart="185" from="-23891848#0" to="-441514510#0" />
<trip id="185" depart="186" from="319358164" to="24537970-AddedOffRampEdge" />
<trip id="186" depart="187" from="-24442485#6" to="441514502#3" />
<trip id="187" depart="188" from="672861355#5" to="-319358171#2" />
<trip id="188" depart="189" from="-434705482#1" to="24537970-AddedOffRampEdge" />
<trip id="189" depart="190" from="483248512#3" to="-441514510#0" />
<trip id="190" depart="191" from="56460697#0" to="36888594#0" />
<trip id="191" depart="192" from="-218557533#4" to="441514510#1" />
<trip id="192" depart="193" from="23891848#0" to="118967822" />
<trip id="193" depart="194" from="23890930#0" to="26232400#1" />
<trip id="194" depart="195" from="-23891848#0" to="56175736#1" />
<trip id="195" depart="196" from="24082316#1" to="312901453" />
<trip id="196" depart="197" from="-623099270" to="24537970" />
<trip id="197" depart="198" from="218557533#2" to="316762107#0" />
<trip id="198" depart="199" from="-435650703" to="36888713#1" />
<trip id="199" depart="200" from="4694846#0" to="319358160#0" />
<trip id="200" depart="201" from="23890902#2" to="56175736#2" />
<trip id="201" depart="202" from="-56175729#0" to="-319358171#3" />
<trip id="202" depart="203" from="23890930#1" to="441514507#0" />
<trip id="203" depart="204" from="23890945#0" to="233930069#1" />
<trip id="204" depart="205" from="-435724017" to="-433780231#0" />
<trip id="205" depart="206" from="26233114#1" to="435724043#0" />
<trip id="206" depart="207" from="24442485#3" to="36888594#2" />
<trip id="207" depart="208" from="434705482#2" to="-435724101" />
<trip id="208" depart="209" from="-483248512#3" to="706407767#0" />
<trip id="209" depart="210" from="-5120694#2" to="-441514510#2" />
<trip id="210" depart="211" from="435724020#1" to="24537963" />
<trip id="211" depart="212" from="218557533#3" to="-441514510#3" />
<trip id="212" depart="213" from="319352694#0" to="152754829" />
<trip id="213" depart="214" from="26233470" to="441514510#4" />
<trip id="214" depart="215" from="434705485" to="-435724096" />
<trip id="215" depart="216" from="-56460698#0" to="-435724097" />
<trip id="216" depart="217" from="4694846#0" to="56175736#1" />
<trip id="217" depart="218" from="-24082316#1" to="-316762107#0" />
<trip id="218" depart="219" from="23891848#1" to="151908961" />
<trip id="219" depart="220" from="-24442485#3" to="-441514510#0" />
<trip id="220" depart="221" from="26233460" to="319345475" />
<trip id="221" depart="222" from="-433777235#1" to="-433780231#0" />
<trip id="222" depart="223" from="24082316#0" to="316762107#1" />
<trip id="223" depart="224" from="-433777235#1" to="441514512#1" />
<trip id="224" depart="225" from="435650704" to="24537970" />
<trip id="225" depart="226" from="-23891848#1" to="152759536#2" />
<trip id="226" depart="227" from="-434705482#0" to="-319358171#0" />
<trip id="227" depart="228" from="5120694#2" to="312901453-AddedOffRampEdge" />
<trip id="228" depart="229" from="-26233114#0" to="152754829" />
<trip id="229" depart="230" from="143926576#0" to="36888594#2" />
<trip id="230" depart="231" from="23890945#0" to="23825880" />
<trip id="231" depart="232" from="-56460697#0" to="-118967822" />
<trip id="232" depart="233" from="23891850#0" to="319358160#2" />
<trip id="233" depart="234" from="438733288" to="433780229#1" />
<trip id="234" depart="235" from="26233255" to="-118967822" />
<trip id="235" depart="236" from="-23891848#2" to="441462668#1" />
<trip id="236" depart="237" from="24442485#6" to="292339728#0" />
<trip id="237" depart="238" from="23890930#0" to="23809965#1" />
<trip id="238" depart="239" from="23891848#1" to="56175736#1" />
<trip id="239" depart="240" from="56175729#1" to="-316762107#1" />
<trip id="240" depart="241" from="-433777235#2" to="441462668#1" />
<trip id="241" depart="242" from="218557533#1" to="36888594#0" />
<trip id="242" depart="243" from="-24442485#6" to="319352697#1" />
<trip id="243" depart="244" from="231307558" to="36888594#2" />
<trip id="244" depart="245" from="145857394#2" to="163148286#1" />
<trip id="245" depart="246" from="24442485#2" to="-56175736#3" />
<trip id="246" depart="247" from="-23891848#0" to="56175736#1" />
<trip id="247" depart="248" from="-56460697#2" to="-435724097" />
<trip id="248" depart="249" from="-24442485#4" to="706407767#1" />
<trip id="249" depart="250" from="24082316#2" to="316762107#0" />
<trip id="250" depart="251" from="-218557533#2" to="163148286#0" />
<trip id="251" depart="252" from="56460697#1" to="163148286#0" />
<trip id="252" depart="253" from="24442485#5" to="26232400#3" />
<trip id="253" depart="254" from="-24442485#1" to="56175736#3" />
<trip id="254" depart="255" from="145857394#4" to="319358160#2" />
<trip id="255" depart="256" from="438733288" to="441514502#3" />
<trip id="256" depart="257" from="-23699376" to="441514510#3" />
<trip id="257" depart="258" from="26233492" to="233930069#0" />
<trip id="258" depart="259" from="434705482#2" to="-435724101" />
<trip id="259" depart="260" from="23891848#3" to="319358171#1" />
<trip id="260" depart="261" from="-623099270" to="24537970" />
<trip id="261" depart="262" from="145857394#3" to="657430052#2" />
<trip id="262" depart="263" from="-434705482#0" to="292339728#0" />
<trip id="263" depart="264" from="-435724017" to="-316762107#0" />
<trip id="264" depart="265" from="435724019" to="319352697#0" />
<trip id="265" depart="266" from="143926576#0" to="-56175736#3" />
<trip id="266" depart="267" from="23890902#2" to="706407767#0" />
<trip id="267" depart="268" from="23890930#1" to="178573378" />
<trip id="268" depart="269" from="56175723#0" to="441514507#2" />
<trip id="269" depart="270" from="-218557533#4" to="657430052#3" />
<trip id="270" depart="271" from="23890945#0" to="233930069#1" />
<trip id="271" depart="272" from="145857394#4" to="-26232853#0" />
<trip id="272" depart="273" from="23890906#1" to="319352697#0" />
<trip id="273" depart="274" from="319358164" to="316762106#0" />
<trip id="274" depart="275" from="145857402#0" to="316762106#0" />
<trip id="275" depart="276" from="4694846#0" to="319358160#0" />
<trip id="276" depart="277" from="24117625" to="319358160#0" />
<trip id="277" depart="278" from="-5120694#4" to="-319358171#1" />
<trip id="278" depart="279" from="434705482#2" to="435724105#2" />
<trip id="279" depart="280" from="-435724020#0" to="319352697#1" />
<trip id="280" depart="281" from="-59145215" to="441514510#0" />
<trip id="281" depart="282" from="56175729#1" to="-56175736#2" />
<trip id="282" depart="283" from="27803812#0" to="-624682399" />
<trip id="283" depart="284" from="-218557533#2" to="163148286#0" />
<trip id="284" depart="285" from="145857394#1" to="621319018#2" />
<trip id="285" depart="286" from="23890930#0" to="23809965#1" />
<trip id="286" depart="287" from="26233470" to="319358160#1" />
<trip id="287" depart="288" from="-56175729#1" to="255623937#0" />
<trip id="288" depart="289" from="4694846#0" to="435724105#0" />
<trip id="289" depart="290" from="23890945#0" to="233930069#1" />
<trip id="290" depart="291" from="145857394#3" to="152754829" />
<trip id="291" depart="292" from="24442485#3" to="36888594#2" />
<trip id="292" depart="293" from="-434705482#0" to="-56175736#2" />
<trip id="293" depart="294" from="-143926576#0" to="621319018#1" />
<trip id="294" depart="295" from="5120694#2" to="-435724105#2" />
<trip id="295" depart="296" from="26233492" to="-24086005" />
<trip id="296" depart="297" from="145846249#1" to="435724043#0" />
<trip id="297" depart="298" from="-23891848#2" to="441514510#0" />
<trip id="298" depart="299" from="433777234#1" to="-624682399" />
<trip id="299" depart="300" from="-24082316#2" to="24086005" />
<trip id="300" depart="301" from="143926576#0" to="-56175736#3" />
<trip id="301" depart="302" from="23891848#0" to="118967822" />
<trip id="302" depart="303" from="-5120694#2" to="706407767#0" />
<trip id="303" depart="304" from="433777234#1" to="-56175736#4" />
<trip id="304" depart="305" from="24442538#2" to="-56175736#2" />
<trip id="305" depart="306" from="435724017" to="-56175736#0" />
<trip id="306" depart="307" from="56175729#1" to="441514510#2" />
<trip id="307" depart="308" from="26233255" to="441514510#3" />
<trip id="308" depart="309" from="-435724017" to="-433780231#0" />
<trip id="309" depart="310" from="-24442485#5" to="312901453-AddedOffRampEdge" />
<trip id="310" depart="311" from="434705482#0" to="36888594#2" />
<trip id="311" depart="312" from="-449387217#0" to="435724043#0" />
<trip id="312" depart="313" from="23890945#1" to="441514507#3" />
<trip id="313" depart="314" from="435724020#0" to="118967822" />
<trip id="314" depart="315" from="-5120694#4" to="-441514510#2" />
<trip id="315" depart="316" from="-26233114#1" to="441514512#0" />
<trip id="316" depart="317" from="-5120694#4" to="-435724097" />
<trip id="317" depart="318" from="218557533#0" to="-441514510#0" />
<trip id="318" depart="319" from="319358164" to="-56175736#0" />
<trip id="319" depart="320" from="23891848#1" to="316762107#1" />
<trip id="320" depart="321" from="672861355#4" to="706407767#1" />
<trip id="321" depart="322" from="-143930348" to="435724096" />
<trip id="322" depart="323" from="59145215" to="312901453-AddedOffRampEdge" />
<trip id="323" depart="324" from="56175729#2" to="319358160#1" />
<trip id="324" depart="325" from="23890930#0" to="-441514510#2" />
<trip id="325" depart="326" from="27803812#2" to="-433780232#1" />
<trip id="326" depart="327" from="435650704" to="-435724105#0" />
<trip id="327" depart="328" from="145857394#3" to="657430052#2" />
<trip id="328" depart="329" from="56460697#1" to="441514510#1" />
<trip id="329" depart="330" from="-24442485#6" to="255623937#1" />
<trip id="330" depart="331" from="24442485#3" to="36888594#2" />
<trip id="331" depart="332" from="-435650704" to="122890693#1" />
<trip id="332" depart="333" from="5120694#2" to="312901453-AddedOffRampEdge" />
<trip id="333" depart="334" from="-56175729#0" to="-319358171#3" />
<trip id="334" depart="335" from="4694846#0" to="316762106#0" />
<trip id="335" depart="336" from="-143926576#1" to="24086005" />
<trip id="336" depart="337" from="24442485#5" to="26232400#3" />
<trip id="337" depart="338" from="145857394#1" to="-56175736#2" />
<trip id="338" depart="339" from="-449387217#0" to="312901453" />
<trip id="339" depart="340" from="-24442485#4" to="441514510#2" />
<trip id="340" depart="341" from="218557533#4" to="-441514510#0" />
<trip id="341" depart="342" from="56175729#2" to="319358171#1" />
<trip id="342" depart="343" from="-435724017" to="-433780231#0" />
<trip id="343" depart="344" from="5120694#1" to="255623937#1" />
<trip id="344" depart="345" from="145857402#1" to="319352697#1" />
<trip id="345" depart="346" from="-56460698#0" to="-316762107#1" />
<trip id="346" depart="347" from="-24442486#0" to="441514507#2" />
<trip id="347" depart="348" from="24442485#5" to="441514507#3" />
<trip id="348" depart="349" from="-623099270" to="-441514510#1" />
<trip id="349" depart="350" from="23890902#2" to="-24086005" />
<trip id="350" depart="351" from="218557533#3" to="-435724101" />
<trip id="351" depart="352" from="-56460697#0" to="441462668#0" />
<trip id="352" depart="353" from="218557533#3" to="-316762107#0" />
<trip id="353" depart="354" from="5120694#0" to="-435724097" />
<trip id="354" depart="355" from="628761687#0" to="-118967822" />
<trip id="355" depart="356" from="218557533#4" to="26232400#3" />
<trip id="356" depart="357" from="628761687#0" to="56175736#2" />
<trip id="357" depart="358" from="-24442485#4" to="435724096" />
<trip id="358" depart="359" from="23890902#2" to="-292339728#1" />
<trip id="359" depart="360" from="26233470" to="657430052#3" />
<trip id="360" depart="361" from="-24117625" to="-56175736#1" />
<trip id="361" depart="362" from="628761687#0" to="-118967822" />
<trip id="362" depart="363" from="-218557533#4" to="316762106#2" />
<trip id="363" depart="364" from="124471125#3" to="36888713#3" />
<trip id="364" depart="365" from="24082316#2" to="26232400#4" />
<trip id="365" depart="366" from="27803812#2" to="-435724105#1" />
<trip id="366" depart="367" from="-218557533#0" to="-319358171#3" />
<trip id="367" depart="368" from="315088588#0" to="233930069#1" />
<trip id="368" depart="369" from="145846249#1" to="435724043#0" />
<trip id="369" depart="370" from="59145215" to="319345475" />
<trip id="370" depart="371" from="145857394#0" to="319358171#3" />
<trip id="371" depart="372" from="-56175729#2" to="441514510#3" />
<trip id="372" depart="373" from="-23891848#0" to="-441514510#0" />
<trip id="373" depart="374" from="23890906#1" to="56175736#3" />
<trip id="374" depart="375" from="124471125#3" to="319358171#1" />
<trip id="375" depart="376" from="-433777234#0" to="24537970" />
<trip id="376" depart="377" from="-433777235#2" to="-56175736#3" />
<trip id="377" depart="378" from="5120694#2" to="441514507#0" />
<trip id="378" depart="379" from="-26233114#0" to="435724105#2" />
<trip id="379" depart="380" from="672861355#5" to="441514510#0" />
<trip id="380" depart="381" from="-435650703" to="36888713#1" />
<trip id="381" depart="382" from="-24442485#4" to="706407767#1" />
<trip id="382" depart="383" from="438733284#1" to="152754829" />
<trip id="383" depart="384" from="27803812#2" to="56175736#3" />
<trip id="384" depart="385" from="-24442485#6" to="36888713#4" />
<trip id="385" depart="386" from="-56460698#1" to="435724096" />
<trip id="386" depart="387" from="-24082316#1" to="441514512#1" />
<trip id="387" depart="388" from="628761687#0" to="255623937#0" />
<trip id="388" depart="389" from="24082316#0" to="441514507#3" />
<trip id="389" depart="390" from="435650703" to="152759536#2-AddedOnRampEdge" />
<trip id="390" depart="391" from="-435724017" to="-316762107#0" />
<trip id="391" depart="392" from="672861355#5" to="-319358171#2" />
<trip id="392" depart="393" from="-145857402#1" to="312901453" />
<trip id="393" depart="394" from="56460697#0" to="118967822" />
<trip id="394" depart="395" from="-24082316#0" to="56175736#0" />
<trip id="395" depart="396" from="435724020#0" to="118967822" />
<trip id="396" depart="397" from="24442538#2" to="-56175736#2" />
<trip id="397" depart="398" from="24442485#2" to="435724097" />
<trip id="398" depart="399" from="319352694#1" to="316762106#3" />
<trip id="399" depart="400" from="-23891848#1" to="441514510#3" />
<trip id="400" depart="401" from="56460698#1" to="441514507#1" />
<trip id="401" depart="402" from="-23891848#0" to="56175736#1" />
<trip id="402" depart="403" from="-24442485#4" to="706407767#1" />
<trip id="403" depart="404" from="-433777234#1" to="316762107#0" />
<trip id="404" depart="405" from="-23890930#1" to="319352697#1" />
<trip id="405" depart="406" from="483248512#6" to="441514507#0" />
<trip id="406" depart="407" from="-56460697#0" to="118967822" />
<trip id="407" depart="408" from="319352694#1" to="316762106#3" />
<trip id="408" depart="409" from="-23891848#2" to="152754829" />
<trip id="409" depart="410" from="23891850#0" to="319358160#2" />
<trip id="410" depart="411" from="23890930#1" to="178573378" />
<trip id="411" depart="412" from="-5120694#4" to="-319358171#1" />
<trip id="412" depart="413" from="5120694#2" to="621319018#2" />
<trip id="413" depart="414" from="56460697#1" to="36888713#3" />
<trip id="414" depart="415" from="56175723#0" to="319345475" />
<trip id="415" depart="416" from="-433777234#1" to="124471131" />
<trip id="416" depart="417" from="-433777235#1" to="255623937#0" />
<trip id="417" depart="418" from="23891848#1" to="56175736#1" />
<trip id="418" depart="419" from="26233260" to="-56175736#4" />
<trip id="419" depart="420" from="434705485" to="-435724096" />
<trip id="420" depart="421" from="438733288" to="441514502#3" />
<trip id="421" depart="422" from="24442485#3" to="433780231#0" />
<trip id="422" depart="423" from="433777235#1" to="233930069#0" />
<trip id="423" depart="424" from="59145215" to="56175736#4" />
<trip id="424" depart="425" from="315088588#0" to="26232400#1" />
<trip id="425" depart="426" from="24442538#1" to="441514502#2" />
<trip id="426" depart="427" from="27803812#2" to="657430052#3" />
<trip id="427" depart="428" from="-24442485#4" to="706407767#1" />
<trip id="428" depart="429" from="145857402#1" to="441462668#0" />
<trip id="429" depart="430" from="-23891848#1" to="-118967822" />
<trip id="430" depart="431" from="-26233114#1" to="706407767#0" />
<trip id="431" depart="432" from="435724019" to="624682398" />
<trip id="432" depart="433" from="628761687#0" to="319358160#2" />
<trip id="433" depart="434" from="23891848#1" to="163148286#0" />
<trip id="434" depart="435" from="-433777235#2" to="-56175736#3" />
<trip id="435" depart="436" from="-435724017" to="-316762107#1" />
<trip id="436" depart="437" from="218557533#0" to="24537970" />
<trip id="437" depart="438" from="-435724020#0" to="319352697#1" />
<trip id="438" depart="439" from="4694846#2" to="319358160#1" />
<trip id="439" depart="440" from="5120694#2" to="312901453-AddedOffRampEdge" />
<trip id="440" depart="441" from="433777235#2" to="-435724101" />
<trip id="441" depart="442" from="5120694#4" to="316762106#0" />
<trip id="442" depart="443" from="672861355#4" to="316762106#0" />
<trip id="443" depart="444" from="145857402#0" to="56175736#3" />
<trip id="444" depart="445" from="-5120694#0" to="435724105#1" />
<trip id="445" depart="446" from="4694846#1-AddedOffRampEdge" to="-435724096" />
<trip id="446" depart="447" from="-56175729#0" to="657430052#1" />
<trip id="447" depart="448" from="-56460697#2" to="56175736#4" />
<trip id="448" depart="449" from="56175729#2" to="319358171#1" />
<trip id="449" depart="450" from="-23891848#2" to="36888594#0" />
<trip id="450" depart="451" from="628761688#1" to="152759536#2" />
<trip id="451" depart="452" from="24442485#5" to="163148286#1" />
<trip id="452" depart="453" from="24442485#2" to="312901453" />
<trip id="453" depart="454" from="24442485#6" to="292339728#0" />