<?xml version="1.0"?>
<trips>
<trip id="0" depart="1" from="435724017" to="178573357" />
<trip id="1" depart="1" from="4694846#4" to="-319358171#3" />
<trip id="2" depart="1" from="145857394#1" to="36888713#4" />
<trip id="3" depart="1" from="23891848#0" to="319345475" />
<trip id="4" depart="1" from="-59145215" to="122890693#2" />
<trip id="5" depart="1" from="434705482#2" to="-435724101" />
<trip id="6" depart="1" from="-26233114#1" to="706407767#0" />
<trip id="7" depart="1" from="628761687#0" to="319352697#1" />
<trip id="8" depart="1" from="-23891848#0" to="441514510#4" />
<trip id="9" depart="1" from="26233260" to="319358171#2" />
<trip id="10" depart="1" from="435724019" to="624682398" />
<trip id="11" depart="1" from="-435724020#1" to="26232400#1" />
<trip id="12" depart="1" from="319352694#0" to="292339728#1" />
<trip id="13" depart="1" from="319352694#0" to="152754829" />
<trip id="14" depart="1" from="-26233114#1" to="-319358171#0" />
<trip id="15" depart="1" from="-23699376" to="441514502#2" />
<trip id="16" depart="1" from="-433777235#2" to="24537970-AddedOffRampEdge" />
<trip id="17" depart="1" from="56460697#1" to="178573357" />
<trip id="18" depart="1" from="218557533#3" to="-56175736#4" />
<trip id="19" depart="1" from="319352694#0" to="292339728#1" />
<trip id="20" depart="1" from="5120694#1" to="319358171#3" />
<trip id="21" depart="1" from="26233470" to="441514510#4" />
<trip id="22" depart="1" from="433777235#1" to="657430052#1" />
<trip id="23" depart="1" from="-218557533#3" to="706407770#1" />
<trip id="24" depart="1" from="-483248512#4" to="-319358171#1" />
<trip id="25" depart="1" from="145857402#0" to="316762106#0" />
<trip id="26" depart="1" from="218557533#2" to="24537970-AddedOffRampEdge" />
<trip id="27" depart="1" from="24442485#6" to="26232400#2" />
<trip id="28" depart="1" from="23890930#0" to="312901453-AddedOffRampEdge" />
<trip id="29" depart="1" from="24070983#1" to="36888713#3" />
<trip id="30" depart="1" from="-5120694#2" to="36888713#3" />
<trip id="31" depart="1" from="124471125#3" to="624682398" />
<trip id="32" depart="1" from="-23891848#2" to="435724101" />
<trip id="33" depart="1" from="315088588#0" to="36888713#1" />
<trip id="34" depart="1" from="145857394#0" to="319358171#3" />
<trip id="35" depart="1" from="145857394#4" to="-26232853#0" />
<trip id="36" depart="1" from="24070983#1" to="-435724101" />
<trip id="37" depart="1" from="-449387217#0" to="36888594#2" />
<trip id="38" depart="1" from="5120694#0" to="56175736#4" />
<trip id="39" depart="1" from="23891848#3" to="319358171#1" />
<trip id="40" depart="1" from="5120694#0" to="312901453-AddedOffRampEdge" />
<trip id="41" depart="1" from="23890945#1" to="-56175736#0" />
<trip id="42" depart="1" from="4694846#0" to="316762106#1" />
<trip id="43" depart="1" from="-433777235#1" to="24086005" />
<trip id="44" depart="1" from="56460697#1" to="122890693#2" />
<trip id="45" depart="1" from="145857394#4" to="441514512#0" />
<trip id="46" depart="1" from="143930348" to="441514510#4" />
<trip id="47" depart="1" from="145857402#1" to="441462668#0" />
<trip id="48" depart="1" from="26233470" to="316762106#3" />
<trip id="49" depart="1" from="145857402#0" to="118967824" />
<trip id="50" depart="2" from="319352694#0" to="292339728#1" />
<trip id="51" depart="2" from="218557533#4" to="-441514510#0" />
<trip id="52" depart="2" from="-483248512#3" to="435724107" />
<trip id="53" depart="2" from="23891848#0" to="319345475" />
<trip id="54" depart="2" from="319352694#0" to="319358171#1" />
<trip id="55" depart="2" from="35023161#0" to="26232392#1" />
<trip id="56" depart="2" from="-56175724" to="26232400#2" />
<trip id="57" depart="2" from="435650703" to="312901453" />
<trip id="58" depart="2" from="433777234#1" to="-56175736#4" />
<trip id="59" depart="2" from="319358168#1" to="36888594#0" />
<trip id="60" depart="2" from="315088588#0" to="233930069#1" />
<trip id="61" depart="2" from="628761687#0" to="23809965#1" />
<trip id="62" depart="2" from="-435724017" to="-433780231#0" />
<trip id="63" depart="2" from="-24442485#5" to="24537970" />
<trip id="64" depart="2" from="56175729#1" to="-316762107#1" />
<trip id="65" depart="2" from="56175729#0" to="657430052#2" />
<trip id="66" depart="2" from="-218557533#2" to="163148286#0" />
<trip id="67" depart="2" from="35023161#1" to="178573357" />
<trip id="68" depart="2" from="-145857402#1" to="312901453" />
<trip id="69" depart="2" from="145846249#0" to="319352697#0" />
<trip id="70" depart="2" from="143930348" to="441514510#4" />
<trip id="71" depart="2" from="56175729#1" to="23809965#1" />
<trip id="72" depart="2" from="23891848#3" to="319358171#1" />
<trip id="73" depart="2" from="-433777235#2" to="441462668#1" />
<trip id="74" depart="2" from="56175723#1" to="435724105#2" />
<trip id="75" depart="2" from="26233460" to="319345475" />
<trip id="76" depart="2" from="-435724020#1" to="435724043#0" />
<trip id="77" depart="2" from="56175729#2" to="441514512#0" />
<trip id="78" depart="2" from="-435724017" to="316762107#1" />
<trip id="79" depart="2" from="56175729#1" to="-292339728#1" />
<trip id="80" depart="2" from="24082316#2" to="316762107#0" />
<trip id="81" depart="2" from="483248512#3" to="441514510#2" />
<trip id="82" depart="2" from="-218557533#0" to="56175736#3" />
<trip id="83" depart="2" from="433777234#0" to="621319018#2" />
<trip id="84" depart="2" from="435724020#0" to="124471097#0" />
<trip id="85" depart="2" from="5120694#0" to="706407767#1" />
<trip id="86" depart="2" from="-56175724" to="621319018#2" />
<trip id="87" depart="2" from="-143926576#0" to="441514512#0" />
<trip id="88" depart="2" from="438733284#1" to="-441514510#0" />
<trip id="89" depart="2" from="-56460698#0" to="-624682399" />
<trip id="90" depart="2" from="24442538#1" to="435724105#0" />
<trip id="91" depart="2" from="-56175729#2" to="316762106#0" />
<trip id="92" depart="2" from="5120694#0" to="706407767#1" />
<trip id="93" depart="2" from="434705482#2" to="-435724101" />
<trip id="94" depart="2" from="218557533#2" to="319358160#1" />
<trip id="95" depart="2" from="-433777234#1" to="312901453-AddedOffRampEdge" />
<trip id="96" depart="2" from="145857394#3" to="152754829" />
<trip id="97" depart="2" from="5120694#0" to="-24086005" />
<trip id="98" depart="2" from="-26233114#1" to="706407767#0" />
<trip id="99" depart="2" from="319358164" to="24537970-AddedOffRampEdge" />
<trip id="100" depart="3" from="23890945#1" to="-56175736#0" />
<trip id="101" depart="3" from="483248512#3" to="-441514510#0" />
<trip id="102" depart="3" from="5120694#2" to="319358160#2" />
<trip id="103" depart="3" from="26233255" to="319358171#3" />
<trip id="104" depart="3" from="24070983#1" to="-435724101" />
<trip id="105" depart="3" from="5120694#4" to="122890694" />
<trip id="106" depart="3" from="24442538#1" to="312901453-AddedOffRampEdge" />
<trip id="107" depart="3" from="-56175729#0" to="-435724105#1" />
<trip id="108" depart="3" from="-5120694#0" to="657430052#2" />
<trip id="109" depart="3" from="628761687#0" to="23809965#1" />
<trip id="110" depart="3" from="-435724020#1" to="36888594#1" />
<trip id="111" depart="3" from="231307558" to="706407770#1" />
<trip id="112" depart="3" from="145857394#4" to="26232400#3" />
<trip id="113" depart="3" from="-24082316#2" to="316762106#2" />
<trip id="114" depart="3" from="59145215" to="-292339728#1" />
<trip id="115" depart="3" from="483248512#3" to="255623937#1" />
<trip id="116" depart="3" from="24442485#1" to="435724107" />
<trip id="117" depart="3" from="56460697#0" to="36888594#0" />
<trip id="118" depart="3" from="23890930#0" to="435724101" />
<trip id="119" depart="3" from="24082316#0" to="441514507#3" />
<trip id="120" depart="3" from="143930348" to="-433780232#1" />
<trip id="121" depart="3" from="24082316#2" to="319358160#1" />
<trip id="122" depart="3" from="143930348" to="435724096" />
<trip id="123" depart="3" from="-24442485#4" to="706407767#1" />
<trip id="124" depart="3" from="319352694#0" to="-624682399" />
<trip id="125" depart="3" from="27803812#0" to="178573357" />
<trip id="126" depart="3" from="218557533#4" to="26232400#3" />
<trip id="127" depart="3" from="5120694#2" to="319345475" />
<trip id="128" depart="3" from="434705482#2" to="435724105#2" />
<trip id="129" depart="3" from="433777235#1" to="657430052#1" />
<trip id="130" depart="3" from="-623099270" to="-24086005" />
<trip id="131" depart="3" from="-449387217#0" to="313816930#0" />
<trip id="132" depart="3" from="-24442485#6" to="255623937#1" />
<trip id="133" depart="3" from="-23890930#0" to="-441514510#4" />
<trip id="134" depart="3" from="4694846#1-AddedOffRampEdge" to="-435724096" />
<trip id="135" depart="3" from="218557533#2" to="24537970-AddedOffRampEdge" />
<trip id="136" depart="3" from="-435724017" to="316762107#1" />
<trip id="137" depart="3" from="218557533#2" to="319358160#1" />
<trip id="138" depart="3" from="-23891848#0" to="441514510#4" />
<trip id="139" depart="3" from="5120694#2" to="441514507#0" />
<trip id="140" depart="3" from="-24442485#0" to="-435724105#1" />
<trip id="141" depart="3" from="56175723#0" to="441514507#2" />
<trip id="142" depart="3" from="-26233114#0" to="435724105#2" />
<trip id="143" depart="3" from="26233492" to="26232392#1" />
<trip id="144" depart="3" from="56175723#0" to="441514507#2" />
<trip id="145" depart="3" from="-56175724" to="621319018#2" />
<trip id="146" depart="3" from="-56460698#0" to="-316762107#1" />
<trip id="147" depart="3" from="-623099270" to="-441514510#1" />
<trip id="148" depart="3" from="24442486#1" to="-435724105#0" />
<trip id="149" depart="3" from="143926576#0" to="433780232#1" />
<trip id="150" depart="4" from="628761687#0" to="319352697#1" />
<trip id="151" depart="4" from="4694846#1" to="56175736#0" />
<trip id="152" depart="4" from="24442538#2" to="316762106#2" />
<trip id="153" depart="4" from="-26233114#0" to="163148286#0" />
<trip id="154" depart="4" from="-23891848#0" to="23809965#1" />
<trip id="155" depart="4" from="-56460697#2" to="151908961" />
<trip id="156" depart="4" from="23891848#3" to="319358171#1" />
<trip id="157" depart="4" from="-435724020#0" to="152754829" />
<trip id="158" depart="4" from="218557533#2" to="706407770#1" />
<trip id="159" depart="4" from="435724017" to="319345474" />
<trip id="160" depart="4" from="628761687#1" to="-319358171#0" />
<trip id="161" depart="4" from="218557533#0" to="-441514510#0" />
<trip id="162" depart="4" from="56175729#2" to="122890694" />
<trip id="163" depart="4" from="433777234#1" to="435724043#0" />
<trip id="164" depart="4" from="-59145215" to="441514510#0" />
<trip id="165" depart="4" from="56460698#0" to="-435724101" />
<trip id="166" depart="4" from="145857394#1" to="435724101" />
<trip id="167" depart="4" from="24442538#2" to="441462668#1" />
<trip id="168" depart="4" from="-145857402#0" to="316762106#2" />
<trip id="169" depart="4" from="134327655#0" to="319358171#3" />
<trip id="170" depart="4" from="24442485#2" to="36888594#2" />
<trip id="171" depart="4" from="24082316#0" to="441514507#3" />
<trip id="172" depart="4" from="24442485#6" to="292339728#0" />
<trip id="173" depart="4" from="435724020#0" to="118967822" />
<trip id="174" depart="4" from="434705482#0" to="624682399" />
<trip id="175" depart="4" from="27803812#2" to="319352697#1" />
<trip id="176" depart="4" from="-5120694#4" to="441514507#0" />
<trip id="177" depart="4" from="-433777234#0" to="-118967822" />
<trip id="178" depart="4" from="23890903#1" to="26232400#3" />
<trip id="179" depart="4" from="-143926576#0" to="441514512#0" />
<trip id="180" depart="4" from="143926576#0" to="657430052#1" />
<trip id="181" depart="4" from="218557533#2" to="313816930#0" />
<trip id="182" depart="4" from="5120694#2" to="441514507#0" />
<trip id="183" depart="4" from="-218557533#2" to="26232400#2" />
<trip id="184" depart="4" from="623099272" to="441514507#2" />
<trip id="185" depart="4" from="449387217#0" to="-435724105#1" />
<trip id="186" depart="4" from="438733288" to="441514502#3" />
<trip id="187" depart="4" from="435724019" to="-319358171#2" />
<trip id="188" depart="4" from="56460698#1" to="56175736#3" />
<trip id="189" depart="4" from="35023161#1" to="-441514510#2" />
<trip id="190" depart="4" from="-24442485#6" to="255623937#1" />
<trip id="191" depart="4" from="438733288" to="441514507#2" />
<trip id="192" depart="4" from="-483248512#4" to="-319358171#1" />
<trip id="193" depart="4" from="143930348" to="441514510#4" />
<trip id="194" depart="4" from="435650703" to="24537970-AddedOffRampEdge" />
<trip id="195" depart="4" from="143926576#1" to="56175736#0" />
<trip id="196" depart="4" from="24442485#2" to="36888713#1" />
<trip id="197" depart="4" from="319352694#0" to="36888594#1" />
<trip id="198" depart="4" from="59145215" to="-441514510#3" />
<trip id="199" depart="4" from="5120694#0" to="56175736#4" />
<trip id="200" depart="5" from="-56460698#0" to="-435724097" />
<trip id="201" depart="5" from="26233255" to="-118967822" />
<trip id="202" depart="5" from="145857394#2" to="23809965#1" />
<trip id="203" depart="5" from="435650703" to="152759536#2-AddedOnRampEdge" />
<trip id="204" depart="5" from="4694846#0" to="435724107" />
<trip id="205" depart="5" from="-24082316#1" to="-56175736#1" />
<trip id="206" depart="5" from="124471125#3" to="624682398" />
<trip id="207" depart="5" from="433777235#1" to="122890694" />
<trip id="208" depart="5" from="-483248512#4" to="-319358171#1" />
<trip id="209" depart="5" from="26233460" to="163148286#0" />
<trip id="210" depart="5" from="-56175729#0" to="-435724105#1" />
<trip id="211" depart="5" from="433780223#1" to="118967824" />
<trip id="212" depart="5" from="315088588#0" to="26232400#1" />
<trip id="213" depart="5" from="218557533#3" to="-316762107#0" />
<trip id="214" depart="5" from="145857394#1" to="-56175736#2" />
<trip id="215" depart="5" from="-435724017" to="441462668#0" />
<trip id="216" depart="5" from="27803812#0" to="621319018#2" />
<trip id="217" depart="5" from="218557533#2" to="319358160#1" />
<trip id="218" depart="5" from="433777234#0" to="319352697#1" />
<trip id="219" depart="5" from="-623099270" to="441514510#0" />
<trip id="220" depart="5" from="145857402#0" to="657430052#3" />
<trip id="221" depart="5" from="-483248512#3" to="255623937#0" />
<trip id="222" depart="5" from="628761688#1" to="624682398" />
<trip id="223" depart="5" from="24117625" to="433780231#0" />
<trip id="224" depart="5" from="26233113" to="36888713#4" />
<trip id="225" depart="5" from="-143930348" to="-435724097" />
<trip id="226" depart="5" from="-433777235#2" to="319358160#2" />
<trip id="227" depart="5" from="24082316#2" to="26232400#4" />
<trip id="228" depart="5" from="56460697#1" to="122890693#2" />
<trip id="229" depart="5" from="483248512#3" to="-441514510#0" />
<trip id="230" depart="5" from="24442485#2" to="36888594#2" />
<trip id="231" depart="5" from="-26233114#1" to="-319358171#0" />
<trip id="232" depart="5" from="628761688#1" to="624682398" />
<trip id="233" depart="5" from="24442485#3" to="706407770#1" />
<trip id="234" depart="5" from="4694846#2" to="122890693#2" />
<trip id="235" depart="5" from="23890902#2" to="-24086005" />
<trip id="236" depart="5" from="218557533#3" to="-441514510#3" />
<trip id="237" depart="5" from="-435650704" to="433780231#0" />
<trip id="238" depart="5" from="56460697#1" to="-435724105#2" />
<trip id="239" depart="5" from="24082316#0" to="441514507#3" />
<trip id="240" depart="5" from="124471125#3" to="319358171#1" />
<trip id="241" depart="5" from="-56460697#1" to="-433780232#1" />
<trip id="242" depart="5" from="-59145215" to="441462668#1" />
<trip id="243" depart="5" from="-435650703" to="118967824" />
<trip id="244" depart="5" from="23699376" to="312901453-AddedOffRampEdge" />
<trip id="245" depart="5" from="434705482#1" to="-435724096" />
<trip id="246" depart="5" from="23699376" to="312901453-AddedOffRampEdge" />
<trip id="247" depart="5" from="24117625" to="24537970-AddedOffRampEdge" />
<trip id="248" depart="5" from="23890903#1" to="441514507#2" />
<trip id="249" depart="5" from="35023161#0" to="26232392#1" />
<trip id="250" depart="6" from="-24442485#2" to="-24086005" />
<trip id="251" depart="6" from="-24442485#4" to="-292339728#1" />
<trip id="252" depart="6" from="433777234#0" to="441462668#1" />
<trip id="253" depart="6" from="-218557533#3" to="706407770#1" />
<trip id="254" depart="6" from="-23891848#0" to="56175736#1" />
<trip id="255" depart="6" from="-24442485#5" to="312901453-AddedOffRampEdge" />
<trip id="256" depart="6" from="26233255" to="441514510#3" />
<trip id="257" depart="6" from="435650705" to="441514502#3" />
<trip id="258" depart="6" from="-23699376" to="441514510#3" />
<trip id="259" depart="6" from="-434705482#0" to="24537970-AddedOffRampEdge" />
<trip id="260" depart="6" from="433777235#1" to="657430052#1" />
<trip id="261" depart="6" from="24082316#0" to="316762107#1" />
<trip id="262" depart="6" from="145857394#3" to="152754829" />
<trip id="263" depart="6" from="23890945#1" to="-292339728#1" />
<trip id="264" depart="6" from="24442485#6" to="-441514510#4" />
<trip id="265" depart="6" from="438733284#1" to="435724107" />
<trip id="266" depart="6" from="435650703" to="122890694" />
<trip id="267" depart="6" from="438733288" to="433780229#1" />
<trip id="268" depart="6" from="-5120694#0" to="26232400#4" />
<trip id="269" depart="6" from="-435724020#0" to="435724105#2" />
<trip id="270" depart="6" from="628761687#0" to="-118967822" />
<trip id="271" depart="6" from="24442485#3" to="706407770#1" />
<trip id="272" depart="6" from="56460698#1" to="56175736#3" />
<trip id="273" depart="6" from="435650705" to="36888713#1" />
<trip id="274" depart="6" from="4694846#1" to="292339728#0" />
<trip id="275" depart="6" from="24082316#1" to="706407767#1" />
<trip id="276" depart="6" from="483248512#3" to="435724043#0" />
<trip id="277" depart="6" from="315088588#0" to="233930069#1" />
<trip id="278" depart="6" from="4694846#2" to="122890693#2" />
<trip id="279" depart="6" from="5120694#2" to="621319018#2" />
<trip id="280" depart="6" from="-56460697#0" to="118967822" />
<trip id="281" depart="6" from="483248512#3" to="255623937#1" />
<trip id="282" depart="6" from="435724020#0" to="118967822" />
<trip id="283" depart="6" from="56460697#0" to="319358160#0" />
<trip id="284" depart="6" from="145857394#3" to="26232392#1" />
<trip id="285" depart="6" from="24442538#1" to="178573357" />
<trip id="286" depart="6" from="24442538#2" to="316762106#2" />
<trip id="287" depart="6" from="218557533#2" to="319358160#1" />
<trip id="288" depart="6" from="-26233114#0" to="152754829" />
<trip id="289" depart="6" from="143926576#1" to="233930069#1" />
<trip id="290" depart="6" from="-56175729#0" to="657430052#1" />
<trip id="291" depart="6" from="433780223#1" to="313816930#1" />
<trip id="292" depart="6" from="26233447" to="435724105#1" />
<trip id="293" depart="6" from="24442485#5" to="435724097" />
<trip id="294" depart="6" from="-435650704" to="122890693#2" />
<trip id="295" depart="6" from="23890930#0" to="312901453-AddedOffRampEdge" />
<trip id="296" depart="6" from="433777234#1" to="441514510#2" />
<trip id="297" depart="6" from="-24442485#4" to="-292339728#1" />
<trip id="298" depart="6" from="-26233114#0" to="163148286#0" />
<trip id="299" depart="6" from="145857394#0" to="-292339728#1" />
<trip id="300" depart="7" from="-143926576#1" to="152754829" />
<trip id="301" depart="7" from="56460698#0" to="124471131" />
<trip id="302" depart="7" from="23699376" to="312901453-AddedOffRampEdge" />
<trip id="303" depart="7" from="24442485#3" to="706407770#1" />
<trip id="304" depart="7" from="218557533#1" to="-24086005" />
<trip id="305" depart="7" from="-56175729#2" to="316762106#0" />
<trip id="306" depart="7" from="143930348" to="-433780232#1" />
<trip id="307" depart="7" from="-56175724" to="-319358171#1" />
<trip id="308" depart="7" from="-218557533#1" to="24537970" />
<trip id="309" depart="7" from="319358164" to="312901453" />
<trip id="310" depart="7" from="-24442485#6" to="319352697#1" />
<trip id="311" depart="7" from="-5120694#4" to="621319018#2" />
<trip id="312" depart="7" from="434705482#0" to="36888594#2" />
<trip id="313" depart="7" from="628761687#0" to="319352697#1" />
<trip id="314" depart="7" from="218557533#2" to="-435724096" />
<trip id="315" depart="7" from="-449387217#0" to="36888594#2" />
<trip id="316" depart="7" from="23890945#0" to="621319018#1" />
<trip id="317" depart="7" from="23890930#1" to="435724105#1" />
<trip id="318" depart="7" from="23891850#0" to="624682398" />
<trip id="319" depart="7" from="-56460697#0" to="319345475" />
<trip id="320" depart="7" from="24082316#0" to="-316762107#0" />
<trip id="321" depart="7" from="-5120694#4" to="441514507#0" />
<trip id="322" depart="7" from="24442538#2" to="-292339728#1" />
<trip id="323" depart="7" from="145857394#4" to="319358160#2" />
<trip id="324" depart="7" from="319358164" to="24537970-AddedOffRampEdge" />
<trip id="325" depart="7" from="435724019" to="621319018#1" />
<trip id="326" depart="7" from="-483248512#3" to="435724107" />
<trip id="327" depart="7" from="231307558" to="-118967824" />
<trip id="328" depart="7" from="435650703" to="312901453" />
<trip id="329" depart="7" from="319352694#0" to="163148286#1" />
<trip id="330" depart="7" from="23890906#1" to="706407770#1" />
<trip id="331" depart="7" from="5120694#0" to="-435724097" />
<trip id="332" depart="7" from="-5120694#0" to="621319018#2" />
<trip id="333" depart="7" from="24220202#7" to="23825858#1" />
<trip id="334" depart="7" from="23810320#11" to="683816243" />
<trip id="335" depart="7" from="134319745#0" to="145846251#1" />
<trip id="336" depart="7" from="48785109#3" to="-435724075" />
<trip id="337" depart="7" from="435724128" to="56400789#1" />
<trip id="338" depart="7" from="319352699#0" to="-514505609#0" />
<trip id="339" depart="7" from="145846239#0" to="433784882" />
<trip id="340" depart="7" from="48785308#5" to="435724069" />
<trip id="341" depart="7" from="59678310#0" to="24213759#0" />
<trip id="342" depart="7" from="373852573#0" to="294712587#1" />
<trip id="343" depart="7" from="59678315#2" to="-24091488#0" />
<trip id="344" depart="7" from="23810320#17" to="-435724063" />
<trip id="345" depart="7" from="145846239#3" to="-316764835#1" />
<trip id="346" depart="7" from="59678310#0" to="-24613631" />
<trip id="347" depart="7" from="435704687#1" to="381820996#0" />
<trip id="348" depart="7" from="48785101#4" to="433784884" />
<trip id="349" depart="7" from="373847549#1" to="145846251#1" />
<trip id="350" depart="8" from="23810320#12" to="4476711#7" />
<trip id="351" depart="8" from="23810320#17" to="56401002" />
<trip id="352" depart="8" from="435704691#1" to="-433783936" />
<trip id="353" depart="8" from="4694846#0" to="-118967824" />
<trip id="354" depart="8" from="319352694#1" to="-319358171#0" />
<trip id="355" depart="8" from="-435704691#0" to="-294712587#1" />
<trip id="356" depart="8" from="48785311" to="433783932" />
<trip id="357" depart="8" from="48785308#3" to="-435724063" />
<trip id="358" depart="8" from="48785309#1" to="-24090845#1" />
<trip id="359" depart="8" from="48785101#8" to="4476711#3" />
<trip id="360" depart="8" from="48785308#1" to="433784889#0" />
<trip id="361" depart="8" from="48785308#7" to="433783936" />
<trip id="362" depart="8" from="-435724021#0" to="433784885" />
<trip id="363" depart="8" from="-134319745#5" to="381820996#1" />
<trip id="364" depart="8" from="24220202#4" to="56237893#1" />
<trip id="365" depart="8" from="620366463#0" to="59667618#0" />
<trip id="366" depart="8" from="48785308#0" to="-59667619#0" />
<trip id="367" depart="8" from="134319745#4" to="59407132#2" />
<trip id="368" depart="8" from="294839950#7" to="255370739#1" />
<trip id="369" depart="8" from="24082316#1" to="292339728#0" />
<trip id="370" depart="8" from="624405242#0" to="4476711#4" />
<trip id="371" depart="8" from="48785309#2" to="452182383" />
<trip id="372" depart="8" from="-435704692#0" to="4476711#9" />
<trip id="373" depart="8" from="373847549#1" to="-683816244" />
<trip id="374" depart="8" from="24220202#6" to="435724088" />
<trip id="375" depart="8" from="59678299#0" to="194705196" />
<trip id="376" depart="8" from="23761316#2" to="514505609#0" />
<trip id="377" depart="8" from="145846239#3" to="294712587#2" />
<trip id="378" depart="8" from="-435724021#0" to="-24090845#5" />
<trip id="379" depart="8" from="48785101#6" to="-435724075" />
<trip id="380" depart="8" from="24220202#7" to="59410419#1" />
<trip id="381" depart="8" from="48785311" to="433783932" />
<trip id="382" depart="8" from="79654785" to="24203010#1" />
<trip id="383" depart="8" from="59678310#4" to="435724088" />
<trip id="384" depart="8" from="435724120" to="59667619#1" />
<trip id="385" depart="8" from="48785109#2" to="4476711#12" />
<trip id="386" depart="8" from="294839950#7" to="381820996#0" />
<trip id="387" depart="8" from="56175730" to="657430052#3" />
<trip id="388" depart="8" from="435724128" to="-24090845#4" />
<trip id="389" depart="8" from="373849342#0" to="435724103#1" />
<trip id="390" depart="8" from="319352689#2" to="435724103#0" />
<trip id="391" depart="8" from="134319743#1" to="4476711#6" />
<trip id="392" depart="8" from="319352699#0" to="435724075" />
<trip id="393" depart="8" from="48785101#9" to="24071819" />
<trip id="394" depart="8" from="59678310#3" to="24213759#1" />
<trip id="395" depart="8" from="373847549#1" to="-452182383" />
<trip id="396" depart="8" from="253716333" to="23825858#1" />
<trip id="397" depart="8" from="56175729#1" to="-319358171#3" />
<trip id="398" depart="8" from="337681343" to="435724032" />
<trip id="399" depart="8" from="-435724017" to="292339728#1" />
<trip id="400" depart="9" from="319352699#0" to="294712584#0" />
<trip id="401" depart="9" from="435704687#1" to="249994971" />
<trip id="402" depart="9" from="319358161" to="435724090" />
<trip id="403" depart="9" from="-134319745#1" to="-56401002" />
<trip id="404" depart="9" from="59678310#4" to="381820996#2" />
<trip id="405" depart="9" from="435724117#0" to="435724090" />
<trip id="406" depart="9" from="435704692#0" to="-23825858#1" />
<trip id="407" depart="9" from="373849342#2" to="-514505609#0" />
<trip id="408" depart="9" from="294839950#4" to="24071819" />
<trip id="409" depart="9" from="24985341" to="435724069" />
<trip id="410" depart="9" from="140576780#0" to="514505609#1" />
<trip id="411" depart="9" from="435724121#1" to="24090845#0" />
<trip id="412" depart="9" from="59678315#0" to="316764839" />
<trip id="413" depart="9" from="24220202#1" to="294712584#0" />
<trip id="414" depart="9" from="134319745#0" to="-435724063" />
<trip id="415" depart="9" from="253716333" to="24213759#1" />
<trip id="416" depart="9" from="48785308#4" to="4476711#14" />
<trip id="417" depart="9" from="134319745#4" to="59407132#2" />
<trip id="418" depart="9" from="48785308#5" to="-435724103#0" />
<trip id="419" depart="9" from="48785308#3" to="-24090845#3" />
<trip id="420" depart="9" from="134319743#0" to="435724099" />
<trip id="421" depart="9" from="59678310#3" to="24213759#1" />
<trip id="422" depart="9" from="23810320#13" to="435724103#0" />
<trip id="423" depart="9" from="24985341" to="294712584#1" />
<trip id="424" depart="9" from="48785101#9" to="4476711#0" />
<trip id="425" depart="9" from="253716333" to="24213759#1" />
<trip id="426" depart="9" from="-134319745#0" to="255370739#1" />
<trip id="427" depart="9" from="23810320#13" to="-294712584#0" />
<trip id="428" depart="9" from="59678299#1" to="445290295#2" />
<trip id="429" depart="9" from="140576780#1" to="4476711#3" />
<trip id="430" depart="9" from="620366463#0" to="-316764836" />
<trip id="431" depart="9" from="48785308#2" to="-435724073" />
<trip id="432" depart="9" from="48785101#9" to="59407132#0" />
<trip id="433" depart="9" from="24985341" to="433783932" />
<trip id="434" depart="9" from="435704691#0" to="435724038" />
<trip id="435" depart="9" from="79654785" to="5109968" />
<trip id="436" depart="9" from="319352699#0" to="445290295#2" />
<trip id="437" depart="9" from="4694846#0" to="-118967824" />
<trip id="438" depart="9" from="48785101#10" to="435724069" />
<trip id="439" depart="9" from="24220202#5" to="435724103#0" />
<trip id="440" depart="9" from="48785311" to="4476711#10" />
<trip id="441" depart="9" from="24220202#0" to="316764837#0" />
<trip id="442" depart="9" from="-435724017" to="292339728#1" />
<trip id="443" depart="9" from="435704687#1" to="-435724103#0" />
<trip id="444" depart="9" from="548526010#2" to="24090845#4" />
<trip id="445" depart="9" from="435724121#1" to="-433783936" />
<trip id="446" depart="9" from="23810320#12" to="4476711#1" />
<trip id="447" depart="9" from="435704692#2" to="24203010#1" />
<trip id="448" depart="9" from="48785309#2" to="435724098#0" />
<trip id="449" depart="9" from="373849342#2" to="433783093" />
<trip id="450" depart="10" from="548526010#0" to="435724098#1" />
<trip id="451" depart="10" from="48785101#4" to="-683816242" />
<trip id="452" depart="10" from="23810320#17" to="-24090845#0" />
<trip id="453" depart="10" from="145846239#2" to="-24091488#1" />
<trip id="454" depart="10" from="23810320#11" to="145846251#2" />
<trip id="455" depart="10" from="59678310#4" to="435724088" />
<trip id="456" depart="10" from="294839950#3" to="514505609#1" />
<trip id="457" depart="10" from="620366463#0" to="59667618#0" />
<trip id="458" depart="10" from="628761687#0" to="433780231#0" />
<trip id="459" depart="10" from="48785101#8" to="-435724063" />
<trip id="460" depart="10" from="48785308#5" to="316764838#1" />
<trip id="461" depart="10" from="23810306" to="59667619#0" />
<trip id="462" depart="10" from="-435724020#0" to="56175736#1" />
<trip id="463" depart="10" from="-435704691#0" to="-433784890" />
<trip id="464" depart="10" from="48785101#10" to="4476711#10" />
<trip id="465" depart="10" from="624405242#1" to="24090845#5" />
<trip id="466" depart="10" from="253716333" to="381820998" />