<?xml version="1.0"?>
<trips>
<trip id="0" depart="1" from="24079801#6" to="59678310#2" />
<trip id="1" depart="1" from="143930349#1" to="23810320#13" />
<trip id="2" depart="1" from="-24105258#1" to="620293814#1" />
<trip id="3" depart="1" from="315088588#2" to="435704692#2" />
<trip id="4" depart="1" from="-24442647#1" to="435724014#1" />
<trip id="5" depart="1" from="124471125#2" to="620366466" />
<trip id="6" depart="1" from="435724111" to="23810320#14" />
<trip id="7" depart="1" from="672861355#3" to="48785101#8" />
<trip id="8" depart="1" from="-433777242#0" to="315089479#5" />
<trip id="9" depart="1" from="-433777234#0" to="-435704692#3" />
<trip id="10" depart="1" from="-623099270" to="620366464#6" />
<trip id="11" depart="1" from="24105258#1" to="-134319745#0" />
<trip id="12" depart="1" from="23754646#2" to="145857414#6" />
<trip id="13" depart="1" from="24442704#3" to="320480951#4" />
<trip id="14" depart="1" from="-24442647#1" to="255563525#1" />
<trip id="15" depart="1" from="124471125#3" to="435704692#3" />
<trip id="16" depart="1" from="433780221#1" to="435704687#1" />
<trip id="17" depart="1" from="-435724018" to="23810320#13" />
<trip id="18" depart="1" from="56175732#2" to="48785101#7" />
<trip id="19" depart="1" from="433777234#0" to="433781986#1" />
<trip id="20" depart="1" from="-24105258#0" to="488107952" />
<trip id="21" depart="1" from="-24442647#1" to="435724014#1" />
<trip id="22" depart="1" from="628761687#0" to="23810320#8" />
<trip id="23" depart="1" from="-56175732#2" to="24220202#2" />
<trip id="24" depart="1" from="26233492" to="315089479#0" />
<trip id="25" depart="1" from="220950833#1" to="435706056#0" />
<trip id="26" depart="1" from="-433780224" to="435724066#0" />
<trip id="27" depart="1" from="-24095729#3" to="-435724022#0" />
<trip id="28" depart="1" from="-24102347#2" to="23810320#0" />
<trip id="29" depart="1" from="26233078#3" to="145857414#6" />
<trip id="30" depart="1" from="672861355#0" to="315089479#1" />
<trip id="31" depart="1" from="433780233#0" to="-435704692#2" />
<trip id="32" depart="1" from="124471125#3" to="435704692#3" />
<trip id="33" depart="1" from="4694846#2" to="616249736" />
<trip id="34" depart="1" from="26233078#3" to="433781984#0" />
<trip id="35" depart="1" from="623099270" to="5263032#3" />
<trip id="36" depart="1" from="-313500943#0" to="-435724066#0" />
<trip id="37" depart="1" from="143930349#1" to="23810320#13" />
<trip id="38" depart="1" from="433777235#2" to="433781984#0" />
<trip id="39" depart="1" from="433777243" to="620366464#3" />
<trip id="40" depart="1" from="-435724018" to="48785101#5" />
<trip id="41" depart="1" from="-23701604#11" to="145846238#1" />
<trip id="42" depart="1" from="-24442647#1" to="435724014#1" />
<trip id="43" depart="1" from="633300071#0" to="-435704687#1" />
<trip id="44" depart="1" from="24442647#0" to="620293814#1" />
<trip id="45" depart="1" from="24442647#0" to="320480951#3" />
<trip id="46" depart="1" from="-433777239" to="145857414#3" />
<trip id="47" depart="1" from="23701595#8" to="-435724066#0" />
<trip id="48" depart="1" from="-623099270" to="-433785009#2" />
<trip id="49" depart="1" from="314944797#2" to="23810320#4" />
<trip id="50" depart="2" from="633300071#0" to="315089479#0" />
<trip id="51" depart="2" from="294839708#1" to="488107951" />
<trip id="52" depart="2" from="314944797#2" to="-48785109#3" />
<trip id="53" depart="2" from="433777234#0" to="435724074" />
<trip id="54" depart="2" from="8429295#5" to="-134319743#0" />
<trip id="55" depart="2" from="8429295#7" to="435724013#1" />
<trip id="56" depart="2" from="433777243" to="315089479#4" />
<trip id="57" depart="2" from="-433777235#2" to="-435724021#0" />
<trip id="58" depart="2" from="-24442647#1" to="4543073#2" />
<trip id="59" depart="2" from="24442704#3" to="320480951#4" />
<trip id="60" depart="2" from="23754646#3" to="48785101#10" />
<trip id="61" depart="2" from="-231307554#0" to="435704691#0" />
<trip id="62" depart="2" from="-623099270" to="620366464#6" />
<trip id="63" depart="2" from="230770380#0" to="435704687#1" />
<trip id="64" depart="2" from="294839708#1" to="-134319743#1" />
<trip id="65" depart="2" from="24095729#3" to="-134319745#1" />
<trip id="66" depart="2" from="-433777235#2" to="624405242#0" />
<trip id="67" depart="2" from="4694846#5" to="24220202#2" />
<trip id="68" depart="2" from="433777234#0" to="433781986#1" />
<trip id="69" depart="2" from="23701604#8" to="433781986#0" />
<trip id="70" depart="2" from="56175732#1" to="-435724022#0" />
<trip id="71" depart="2" from="-24102347#5" to="433783097#2" />
<trip id="72" depart="2" from="433777241" to="616249736" />
<trip id="73" depart="2" from="433780221#1" to="-134319743#1" />
<trip id="74" depart="2" from="24102347#2" to="435704692#2" />
<trip id="75" depart="2" from="8429295#4" to="315089479#1" />
<trip id="76" depart="2" from="26233460" to="-435704691#1" />
<trip id="77" depart="2" from="26233441" to="-48785109#3" />
<trip id="78" depart="2" from="-435724115" to="315089479#4" />
<trip id="79" depart="2" from="24095729#3" to="-134319745#1" />
<trip id="80" depart="2" from="24442704#2" to="435724077" />
<trip id="81" depart="2" from="-24105258#0" to="488107952" />
<trip id="82" depart="2" from="633300069#1" to="23810320#7" />
<trip id="83" depart="2" from="-24079801#5" to="-134319745#1" />
<trip id="84" depart="2" from="-433780224" to="4543073#0" />
<trip id="85" depart="2" from="-433780224" to="4543073#0" />
<trip id="86" depart="2" from="23701604#9" to="435724066#1" />
<trip id="87" depart="2" from="314944797#2" to="-433785009#2" />
<trip id="88" depart="2" from="24079801#2" to="-435724066#1" />
<trip id="89" depart="2" from="26233239" to="134319743#0" />
<trip id="90" depart="2" from="220950833#2" to="616249736" />
<trip id="91" depart="2" from="435724111" to="435724113" />
<trip id="92" depart="2" from="313500943#0" to="433785009#2" />
<trip id="93" depart="2" from="433777235#0" to="145857414#5" />
<trip id="94" depart="2" from="26233260" to="-255563525#1" />
<trip id="95" depart="2" from="-435724051" to="-433785009#1" />
<trip id="96" depart="2" from="628761688#0" to="23810320#3" />
<trip id="97" depart="2" from="95349529" to="134319745#1" />
<trip id="98" depart="2" from="-24442647#0" to="435724113" />
<trip id="99" depart="2" from="-433777239" to="435706056#0" />
<trip id="100" depart="3" from="8429295#6" to="-435704687#1" />
<trip id="101" depart="3" from="23754646#2" to="145857414#6" />
<trip id="102" depart="3" from="124471125#3" to="624405242#2" />
<trip id="103" depart="3" from="95349529" to="48785109#3" />
<trip id="104" depart="3" from="-433777240" to="-433785009#2" />
<trip id="105" depart="3" from="-24102347#4" to="23810320#0" />
<trip id="106" depart="3" from="24095729#0" to="48785101#4" />
<trip id="107" depart="3" from="24442704#3" to="435724013#2" />
<trip id="108" depart="3" from="-24442647#0" to="433785009#0" />
<trip id="109" depart="3" from="628761688#1" to="23810320#9" />
<trip id="110" depart="3" from="435724111" to="435724113" />
<trip id="111" depart="3" from="433777235#1" to="255563525#1" />
<trip id="112" depart="3" from="-433780224" to="435724066#0" />
<trip id="113" depart="3" from="433780221#1" to="-134319743#1" />
<trip id="114" depart="3" from="56175732#2" to="48785101#7" />
<trip id="115" depart="3" from="23754646#0" to="143928402#9" />
<trip id="116" depart="3" from="433777242#1" to="-435704687#1" />
<trip id="117" depart="3" from="433780233#2" to="23810320#3" />
<trip id="118" depart="3" from="143930349#0" to="435724013#3" />
<trip id="119" depart="3" from="56175732#2" to="315089479#5" />
<trip id="120" depart="3" from="628761688#0" to="48785101#11" />
<trip id="121" depart="3" from="26233441" to="-433785009#1" />
<trip id="122" depart="3" from="-433780233#0" to="435724013#0" />
<trip id="123" depart="3" from="-433777238" to="-134319743#1" />
<trip id="124" depart="3" from="8429295#5" to="-255563525#0" />
<trip id="125" depart="3" from="438733284#0" to="145857414#6" />
<trip id="126" depart="3" from="313500941#2" to="433783096#1" />
<trip id="127" depart="3" from="23754646#2" to="24220202#3" />
<trip id="128" depart="3" from="433780233#0" to="-435704692#2" />
<trip id="129" depart="3" from="24105258#1" to="488107951" />
<trip id="130" depart="3" from="-24442651#0" to="48785109#3" />
<trip id="131" depart="3" from="-433780233#2" to="59678310#1" />
<trip id="132" depart="3" from="433777234#1" to="624405242#1" />
<trip id="133" depart="3" from="24442651#0" to="433783096#1" />
<trip id="134" depart="3" from="24079801#5" to="315089479#2" />
<trip id="135" depart="3" from="-24102347#1" to="-48785109#3" />
<trip id="136" depart="3" from="24095729#5" to="488107952" />
<trip id="137" depart="3" from="143930349#1" to="616249736" />
<trip id="138" depart="3" from="628761688#0" to="48785101#10" />
<trip id="139" depart="3" from="26233460" to="435724013#1" />
<trip id="140" depart="3" from="24095729#2" to="48785109#2" />
<trip id="141" depart="3" from="-24095729#4" to="48785101#4" />
<trip id="142" depart="3" from="314944797#1" to="-435724074" />
<trip id="143" depart="3" from="124471125#2" to="-435704691#0" />
<trip id="144" depart="3" from="134327655#1" to="48785101#9" />
<trip id="145" depart="3" from="-24442647#1" to="320480949#1" />
<trip id="146" depart="3" from="433777234#1" to="-134319745#0" />
<trip id="147" depart="3" from="145846249#1" to="23810320#12" />
<trip id="148" depart="3" from="24102347#6" to="315089480#1" />
<trip id="149" depart="3" from="134327655#0" to="616249736" />
<trip id="150" depart="4" from="24102347#5" to="-433785009#2" />
<trip id="151" depart="4" from="-433777242#0" to="315089480#1" />
<trip id="152" depart="4" from="-56175732#2" to="433781984#0" />
<trip id="153" depart="4" from="-433777242#0" to="315089479#5" />
<trip id="154" depart="4" from="433777238" to="5263032#0" />
<trip id="155" depart="4" from="26233441" to="145857414#2" />
<trip id="156" depart="4" from="-623099270" to="-435724066#0" />
<trip id="157" depart="4" from="24442538#1" to="435724113" />
<trip id="158" depart="4" from="24102347#1" to="145846238#1" />
<trip id="159" depart="4" from="24442651#0" to="433781984#0" />
<trip id="160" depart="4" from="-433780233#2" to="24220202#0" />
<trip id="161" depart="4" from="-433777240" to="320480951#4" />
<trip id="162" depart="4" from="-24105258#0" to="-435704692#3" />
<trip id="163" depart="4" from="-24102347#0" to="435724113" />
<trip id="164" depart="4" from="-56175732#0" to="23810320#5" />
<trip id="165" depart="4" from="23754646#0" to="134319743#0" />
<trip id="166" depart="4" from="145846249#0" to="435724066#0" />
<trip id="167" depart="4" from="672861355#3" to="48785101#8" />
<trip id="168" depart="4" from="435724115" to="320480951#0" />
<trip id="169" depart="4" from="124471125#3" to="435704692#3" />
<trip id="170" depart="4" from="-24442647#0" to="320480951#0" />
<trip id="171" depart="4" from="24079801#6" to="59678310#2" />
<trip id="172" depart="4" from="24102347#5" to="-255563525#0" />
<trip id="173" depart="4" from="-433777239" to="435706056#0" />
<trip id="174" depart="4" from="314944797#2" to="624405242#2" />
<trip id="175" depart="4" from="-24102347#1" to="435724066#1" />
<trip id="176" depart="4" from="26233233#1" to="134319743#1" />
<trip id="177" depart="4" from="314944797#2" to="-48785109#3" />
<trip id="178" depart="4" from="-433780233#1" to="59678310#2" />
<trip id="179" depart="4" from="623099272" to="23810320#12" />
<trip id="180" depart="4" from="433777240" to="145857414#7" />
<trip id="181" depart="4" from="-722265618" to="433785009#2" />
<trip id="182" depart="4" from="-433777242#0" to="315089480#1" />
<trip id="183" depart="4" from="-435724018" to="435724014#2" />
<trip id="184" depart="4" from="-24442647#0" to="59678310#0" />
<trip id="185" depart="4" from="24079801#6" to="5263032#1" />
<trip id="186" depart="4" from="-433777239" to="435724014#0" />
<trip id="187" depart="4" from="433777235#0" to="145857414#5" />
<trip id="188" depart="4" from="438733284#1" to="435724119#0" />
<trip id="189" depart="4" from="-56175732#2" to="24220202#2" />
<trip id="190" depart="4" from="722265618" to="145846238#0" />
<trip id="191" depart="4" from="26233501" to="48785109#3" />
<trip id="192" depart="4" from="294839708#0" to="-48785113#1" />
<trip id="193" depart="4" from="-231307554#0" to="620366464#3" />
<trip id="194" depart="4" from="24095729#3" to="134319743#1" />
<trip id="195" depart="4" from="26233428" to="4543073#1" />
<trip id="196" depart="4" from="438733284#0" to="23810320#6" />
<trip id="197" depart="4" from="-433777238" to="-435724066#1" />
<trip id="198" depart="4" from="24105258#1" to="-435724066#0" />
<trip id="199" depart="4" from="24102347#3" to="5263032#3" />
<trip id="200" depart="5" from="314944797#2" to="23810320#4" />
<trip id="201" depart="5" from="220950833#3" to="435724013#1" />
<trip id="202" depart="5" from="435724111" to="435724113" />
<trip id="203" depart="5" from="-435724051" to="145857414#8" />
<trip id="204" depart="5" from="124471125#3" to="624405242#2" />
<trip id="205" depart="5" from="26233428" to="624405242#1" />
<trip id="206" depart="5" from="24442538#1" to="435724113" />
<trip id="207" depart="5" from="8429295#5" to="-134319743#0" />
<trip id="208" depart="5" from="314944797#2" to="23810320#4" />
<trip id="209" depart="5" from="-632301930" to="255563525#1" />
<trip id="210" depart="5" from="231307554#0" to="433781984#0" />
<trip id="211" depart="5" from="-23701604#8" to="435724014#1" />
<trip id="212" depart="5" from="-433780233#2" to="24220202#0" />
<trip id="213" depart="5" from="-24442704#0" to="-620293814#0" />
<trip id="214" depart="5" from="124471125#0" to="620366466" />
<trip id="215" depart="5" from="-433777241" to="435704691#0" />
<trip id="216" depart="5" from="435724126" to="435724119#1" />
<trip id="217" depart="5" from="433777235#2" to="433781984#0" />
<trip id="218" depart="5" from="-435724018" to="315089479#5" />
<trip id="219" depart="5" from="56175732#4" to="624405242#1" />
<trip id="220" depart="5" from="145846249#0" to="23810320#6" />
<trip id="221" depart="5" from="-231307554#0" to="24220202#0" />
<trip id="222" depart="5" from="433777242#0" to="435704692#3" />
<trip id="223" depart="5" from="-23701604#11" to="145846238#1" />
<trip id="224" depart="5" from="435724126" to="320480951#2" />
<trip id="225" depart="5" from="220950833#3" to="435724013#1" />
<trip id="226" depart="5" from="24079801#6" to="5263032#1" />
<trip id="227" depart="5" from="433777236" to="23810320#13" />
<trip id="228" depart="5" from="56175732#3" to="23810320#5" />
<trip id="229" depart="5" from="-24079801#6" to="-435724021#1" />
<trip id="230" depart="5" from="-24102347#0" to="435724119#0" />
<trip id="231" depart="5" from="24102347#6" to="620366464#3" />
<trip id="232" depart="5" from="-433777239" to="145857414#3" />
<trip id="233" depart="5" from="-24105258#1" to="620293814#1" />
<trip id="234" depart="5" from="-433780233#0" to="435724021#0" />
<trip id="235" depart="5" from="-435724018" to="48785101#5" />
<trip id="236" depart="5" from="-23701604#9" to="433781984#0" />
<trip id="237" depart="5" from="56175732#0" to="435724066#0" />
<trip id="238" depart="5" from="-24079801#8" to="48785101#6" />
<trip id="239" depart="5" from="220950833#1" to="315089479#4" />
<trip id="240" depart="5" from="-313500943#0" to="-433785009#0" />
<trip id="241" depart="5" from="-433777235#2" to="23810320#12" />
<trip id="242" depart="5" from="-435724018" to="48785101#5" />
<trip id="243" depart="5" from="632301930" to="315089479#1" />
<trip id="244" depart="5" from="23754646#0" to="143928402#9" />
<trip id="245" depart="5" from="433777234#1" to="-134319745#0" />
<trip id="246" depart="5" from="24442704#2" to="435724077" />
<trip id="247" depart="5" from="628761688#0" to="315089479#2" />
<trip id="248" depart="5" from="220950833#2" to="320480951#2" />
<trip id="249" depart="5" from="24079801#3" to="-48785109#3" />
<trip id="250" depart="6" from="433777239" to="23810320#14" />
<trip id="251" depart="6" from="-433777241" to="4543073#2" />
<trip id="252" depart="6" from="-24105258#0" to="-435704692#3" />
<trip id="253" depart="6" from="-435724111" to="23810320#11" />
<trip id="254" depart="6" from="722265618" to="433785009#1" />
<trip id="255" depart="6" from="24102347#5" to="315089480#0" />
<trip id="256" depart="6" from="26233239" to="435706056#1" />
<trip id="257" depart="6" from="-24079801#5" to="145846238#0" />
<trip id="258" depart="6" from="24095729#2" to="620366464#5" />
<trip id="259" depart="6" from="633300071#0" to="23810320#8" />
<trip id="260" depart="6" from="722265618" to="620366464#5" />
<trip id="261" depart="6" from="-433777236" to="-433785009#1" />
<trip id="262" depart="6" from="-433780224" to="315089479#3" />
<trip id="263" depart="6" from="314944797#2" to="23810320#4" />
<trip id="264" depart="6" from="-433777234#1" to="624405242#1" />
<trip id="265" depart="6" from="-24079801#4" to="24220202#0" />
<trip id="266" depart="6" from="26233441" to="-48785109#3" />
<trip id="267" depart="6" from="24442704#2" to="435724077" />
<trip id="268" depart="6" from="314944797#2" to="23810320#4" />
<trip id="269" depart="6" from="-24079801#7" to="435724066#0" />
<trip id="270" depart="6" from="-24079801#2" to="48785101#4" />
<trip id="271" depart="6" from="433777243" to="620366464#3" />
<trip id="272" depart="6" from="435724115" to="-435704691#0" />
<trip id="273" depart="6" from="56175732#3" to="23810320#5" />
<trip id="274" depart="6" from="435724111" to="23810320#14" />
<trip id="275" depart="6" from="-231307554#0" to="-435724021#0" />
<trip id="276" depart="6" from="433777241" to="320480951#3" />
<trip id="277" depart="6" from="-24079801#7" to="23810320#13" />
<trip id="278" depart="6" from="26233233#1" to="134319743#1" />
<trip id="279" depart="6" from="26233260" to="-255563525#1" />
<trip id="280" depart="6" from="-24079801#2" to="48785101#4" />
<trip id="281" depart="6" from="632301930" to="435724110" />
<trip id="282" depart="6" from="-24102347#3" to="624405242#0" />
<trip id="283" depart="6" from="24442647#1" to="48785101#8" />
<trip id="284" depart="6" from="-24442647#1" to="255563525#1" />
<trip id="285" depart="6" from="623099270" to="-435704691#0" />
<trip id="286" depart="6" from="24079801#6" to="59678310#2" />
<trip id="287" depart="6" from="-23701595#8" to="435706056#0" />
<trip id="288" depart="6" from="24095729#3" to="145857414#6" />
<trip id="289" depart="6" from="-433780224" to="315089480#1" />
<trip id="290" depart="6" from="134327655#2" to="435724066#1" />
<trip id="291" depart="6" from="23754646#0" to="143928402#9" />
<trip id="292" depart="6" from="433777238" to="255563525#0" />
<trip id="293" depart="6" from="433777243" to="23810320#5" />
<trip id="294" depart="6" from="24102347#5" to="-255563525#0" />
<trip id="295" depart="6" from="26233441" to="435724014#2" />
<trip id="296" depart="6" from="-435724116" to="-134319743#1" />
<trip id="297" depart="6" from="433777239" to="-435704692#0" />
<trip id="298" depart="6" from="672861355#4" to="-255563525#0" />
<trip id="299" depart="6" from="313500941#2" to="-134319745#0" />
<trip id="300" depart="7" from="633300071#0" to="23810320#8" />
<trip id="301" depart="7" from="-433777242#0" to="315089479#5" />
<trip id="302" depart="7" from="-433777240" to="315089480#0" />
<trip id="303" depart="7" from="230770380#0" to="23810320#1" />
<trip id="304" depart="7" from="145846249#0" to="-435724021#1" />
<trip id="305" depart="7" from="8429295#8" to="320480949#0" />
<trip id="306" depart="7" from="220950833#0" to="320480951#2" />
<trip id="307" depart="7" from="-23701604#8" to="48785113#1" />
<trip id="308" depart="7" from="315088588#2" to="59678310#2" />
<trip id="309" depart="7" from="672861355#4" to="435724066#0" />
<trip id="310" depart="7" from="632301930" to="-48785109#3" />
<trip id="311" depart="7" from="433777240" to="145857414#7" />
<trip id="312" depart="7" from="24442538#2" to="-620293814#0" />
<trip id="313" depart="7" from="8429295#8" to="23810320#13" />
<trip id="314" depart="7" from="-231307554#0" to="24220202#0" />
<trip id="315" depart="7" from="134327655#0" to="315089479#0" />
<trip id="316" depart="7" from="-24442647#1" to="435724014#1" />
<trip id="317" depart="7" from="313500943#1" to="5263032#1" />
<trip id="318" depart="7" from="23754646#2" to="24220202#3" />
<trip id="319" depart="7" from="134327655#2" to="435724066#1" />
<trip id="320" depart="7" from="314944797#2" to="23810320#4" />
<trip id="321" depart="7" from="124471125#0" to="620366466" />
<trip id="322" depart="7" from="220950833#0" to="320480951#2" />
<trip id="323" depart="7" from="124471125#0" to="620366464#5" />
<trip id="324" depart="7" from="628761688#1" to="435704692#3" />
<trip id="325" depart="7" from="-433777238" to="-435724066#1" />
<trip id="326" depart="7" from="24105258#0" to="4543073#0" />
<trip id="327" depart="7" from="-24079801#2" to="145857414#3" />
<trip id="328" depart="7" from="-24102347#0" to="435724113" />
<trip id="329" depart="7" from="24079801#7" to="48785109#3" />
<trip id="330" depart="7" from="-23701604#11" to="433785009#0" />
<trip id="331" depart="7" from="24079801#3" to="-134319743#0" />
<trip id="332" depart="7" from="314944797#0" to="145857414#6" />
<trip id="333" depart="7" from="-24090845#0" to="433780221#2-AddedOffRampEdge" />
<trip id="334" depart="7" from="48785308#12" to="26233501-AddedOffRampEdge" />
<trip id="335" depart="7" from="-24095729#2" to="23810320#5" />
<trip id="336" depart="7" from="124471125#0" to="435704692#2" />
<trip id="337" depart="7" from="435724041#3" to="-23646718#5" />
<trip id="338" depart="7" from="4476711#4" to="-24442704#3" />
<trip id="339" depart="7" from="-23701595#8" to="620293814#0" />
<trip id="340" depart="7" from="4476711#2" to="24105258#0" />
<trip id="341" depart="7" from="433780221#2-AddedOffRampEdge" to="23810320#4" />
<trip id="342" depart="7" from="657718778#2" to="23754646#3" />
<trip id="343" depart="7" from="-435724061" to="-23701595#3" />
<trip id="344" depart="7" from="435724041#4" to="-24442704#3" />
<trip id="345" depart="7" from="4476711#9" to="-24075631#1" />
<trip id="346" depart="7" from="-435724115" to="145857414#6" />
<trip id="347" depart="7" from="433783095#0" to="-433777239" />
<trip id="348" depart="7" from="672861355#3" to="435724113" />
<trip id="349" depart="7" from="24442704#3" to="435704687#1" />
<trip id="350" depart="8" from="26233241" to="23810320#3" />
<trip id="351" depart="8" from="435724041#2" to="319345470#1" />
<trip id="352" depart="8" from="5263032#5" to="26233501-AddedOffRampEdge" />
<trip id="353" depart="8" from="-435724061" to="-23701595#3" />
<trip id="354" depart="8" from="24095729#7" to="315089479#4" />
<trip id="355" depart="8" from="48785308#13" to="435724118#1" />
<trip id="356" depart="8" from="4476711#0" to="124471131" />
<trip id="357" depart="8" from="-433777238" to="435704691#0" />
<trip id="358" depart="8" from="4476711#10" to="-56175732#3" />
<trip id="359" depart="8" from="-24079801#3" to="620366464#2" />
<trip id="360" depart="8" from="-433777238" to="320480951#1" />
<trip id="361" depart="8" from="24220202#6" to="220950833#0" />
<trip id="362" depart="8" from="-24079801#8" to="-435724066#1" />
<trip id="363" depart="8" from="24079801#2" to="620366464#2" />
<trip id="364" depart="8" from="435724061" to="24442647#1" />
<trip id="365" depart="8" from="433784885" to="-56175732#2" />
<trip id="366" depart="8" from="433780221#2-AddedOffRampEdge" to="23810320#4" />
<trip id="367" depart="8" from="24442647#0" to="624405242#1" />
<trip id="368" depart="8" from="26233255" to="48785109#3" />
<trip id="369" depart="8" from="26233460" to="145846238#0" />
<trip id="370" depart="8" from="4476711#14" to="24075633#1" />
<trip id="371" depart="8" from="-24091488#1" to="-23646718#4" />
<trip id="372" depart="8" from="4476711#3" to="23701595#8" />
<trip id="373" depart="8" from="24220202#8" to="255368623#2" />
<trip id="374" depart="8" from="615643981#1" to="-433777242#0" />
<trip id="375" depart="8" from="-24091488#1" to="23646718#2" />
<trip id="376" depart="8" from="316762111#0" to="56175732#4" />
<trip id="377" depart="8" from="-24079801#6" to="145846238#1" />
<trip id="378" depart="8" from="48785308#12" to="26233018#3" />
<trip id="379" depart="8" from="657718778#1" to="435724051" />
<trip id="380" depart="8" from="615643981#0" to="26233447" />
<trip id="381" depart="8" from="48785308#5" to="163148347#2" />
<trip id="382" depart="8" from="435724084#1" to="26233018#6" />
<trip id="383" depart="8" from="314944797#0" to="134319745#1" />
<trip id="384" depart="8" from="-24442647#1" to="-620293814#0" />
<trip id="385" depart="8" from="24079801#5" to="-48785109#2" />
<trip id="386" depart="8" from="-433780233#1" to="23810320#3" />
<trip id="387" depart="8" from="-24090845#0" to="-23646718#3" />
<trip id="388" depart="8" from="48785308#15" to="319352692#1" />
<trip id="389" depart="8" from="435724061" to="24442647#1" />
<trip id="390" depart="8" from="615900441" to="314944798#2" />
<trip id="391" depart="8" from="319345472#1" to="-24095729#0" />
<trip id="392" depart="8" from="-435724061" to="-220950833#2" />
<trip id="393" depart="8" from="434705483#1" to="443354605#1" />
<trip id="394" depart="8" from="5263032#5" to="56175732#4" />
<trip id="395" depart="8" from="-433777236" to="435724013#0" />
<trip id="396" depart="8" from="230770380#0" to="435724021#0" />
<trip id="397" depart="8" from="4476711#6" to="116846056#0" />
<trip id="398" depart="8" from="24102347#3" to="48785101#4" />
<trip id="399" depart="8" from="24079801#5" to="-48785109#2" />
<trip id="400" depart="9" from="-435724061" to="-220950833#2" />
<trip id="401" depart="9" from="672861355#0" to="435704692#2" />
<trip id="402" depart="9" from="4476711#14" to="24075633#1" />
<trip id="403" depart="9" from="319345471#1" to="56175732#2" />
<trip id="404" depart="9" from="4476711#12" to="433780222#1" />
<trip id="405" depart="9" from="313500941#2" to="134319745#1" />
<trip id="406" depart="9" from="433780233#1" to="-433785009#2" />
<trip id="407" depart="9" from="48785308#7" to="23646718#0" />
<trip id="408" depart="9" from="145857414#0" to="433777240" />
<trip id="409" depart="9" from="24220202#9" to="435724082#0" />
<trip id="410" depart="9" from="-433780233#0" to="48785101#6" />
<trip id="411" depart="9" from="48785308#13" to="56175732#3" />
<trip id="412" depart="9" from="435724041#1" to="233930070#2" />
<trip id="413" depart="9" from="24220202#7" to="23646718#5" />
<trip id="414" depart="9" from="48785308#8" to="26233017#1" />
<trip id="415" depart="9" from="722265618" to="433783097#3" />
<trip id="416" depart="9" from="26233255" to="435724022#0" />
<trip id="417" depart="9" from="230770380#0" to="433783096#1" />
<trip id="418" depart="9" from="4476711#6" to="-24442647#1" />
<trip id="419" depart="9" from="316762111#0" to="56175732#4" />
<trip id="420" depart="9" from="435724084#1" to="315088590#2" />
<trip id="421" depart="9" from="435724041#1" to="116025905#0" />
<trip id="422" depart="9" from="5263032#6" to="-24105258#0" />
<trip id="423" depart="9" from="48785308#5" to="163148347#2" />
<trip id="424" depart="9" from="319345473" to="-220950833#0" />
<trip id="425" depart="9" from="319345471#1" to="314944794#0" />
<trip id="426" depart="9" from="435724041#3" to="685624516#1" />
<trip id="427" depart="9" from="316762111#0" to="435724085#0" />
<trip id="428" depart="9" from="26233233#1" to="145857414#2" />
<trip id="429" depart="9" from="657718778#0" to="24105258#1" />
<trip id="430" depart="9" from="615900435" to="-56175732#0" />
<trip id="431" depart="9" from="435724035#0" to="116025905#1" />
<trip id="432" depart="9" from="5263032#6" to="-24105258#0" />
<trip id="433" depart="9" from="435724033" to="24442704#2" />
<trip id="434" depart="9" from="4476711#0" to="124471131" />
<trip id="435" depart="9" from="4476711#14" to="443354605#1" />
<trip id="436" depart="9" from="5263032#5" to="-433777236" />
<trip id="437" depart="9" from="24220202#4" to="433777242#1" />
<trip id="438" depart="9" from="316762111#0" to="-23646718#5" />
<trip id="439" depart="9" from="4476711#2" to="230770380#1" />
<trip id="440" depart="9" from="435724016" to="145846238#1" />
<trip id="441" depart="9" from="-24102347#5" to="24220202#0" />
<trip id="442" depart="9" from="48785308#13" to="116846056#1" />
<trip id="443" depart="9" from="-433777234#1" to="435724013#2" />
<trip id="444" depart="9" from="-24091488#1" to="23646718#2" />
<trip id="445" depart="9" from="24090845#0" to="435724016" />
<trip id="446" depart="9" from="316762111#0" to="-24442704#0" />
<trip id="447" depart="9" from="24220202#10" to="-433777239" />
<trip id="448" depart="9" from="615643981#0" to="26233017#1" />
<trip id="449" depart="9" from="4476711#14" to="433780222#2-AddedOnRampEdge" />
<trip id="450" depart="10" from="-134319745#4" to="-24075631#0" />
<trip id="451" depart="10" from="24220202#10" to="-24075631#0" />
<trip id="452" depart="10" from="-24079801#3" to="620366464#2" />
<trip id="453" depart="10" from="615900441" to="24105258#7" />
<trip id="454" depart="10" from="48785308#14" to="23754646#3" />
<trip id="455" depart="10" from="435724018" to="620293814#0" />
<trip id="456" depart="10" from="23890906#0" to="-433785009#1" />
<trip id="457" depart="10" from="433783095#1" to="26233008" />
<trip id="458" depart="10" from="24102347#0" to="5263032#2" />
<trip id="459" depart="10" from="435724084#0" to="433777242#1" />
<trip id="460" depart="10" from="657718778#1" to="433777241" />
<trip id="461" depart="10" from="48785308#13" to="433780233#2" />
<trip id="462" depart="10" from="24220202#7" to="319352697#1" />
<trip id="463" depart="10" from="-24090845#1" to="-23646718#4" />
<trip id="464" depart="10" from="24102347#0" to="5263032#2" />
<trip id="465" depart="10" from="24220202#3" to="-433780224" />
<trip id="466" depart="10" from="435724084#0" to="385889740#3" />