<?xml version="1.0"?>
<trips>
<trip id="0" depart="1" from="48785101#9" to="316764835#1" />
<trip id="1" depart="1" from="145846239#3" to="194705197" />
<trip id="2" depart="1" from="435704690#1" to="122890693#2" />
<trip id="3" depart="1" from="435704687#1" to="433783932" />
<trip id="4" depart="1" from="373849347" to="-435724099" />
<trip id="5" depart="1" from="23810302#0" to="312901458#0" />
<trip id="6" depart="1" from="145846239#2" to="-316764836" />
<trip id="7" depart="1" from="435724121#0" to="433783932" />
<trip id="8" depart="1" from="-435704692#0" to="-316764836" />
<trip id="9" depart="1" from="319358170#0" to="316764838#1" />
<trip id="10" depart="1" from="145846239#0" to="-373852569#1" />
<trip id="11" depart="1" from="-373849350#0" to="24989770-AddedOffRampEdge" />
<trip id="12" depart="1" from="4694846#0" to="35023161#0" />
<trip id="13" depart="1" from="-373849343" to="124532856" />
<trip id="14" depart="1" from="319358170#0" to="56237893#1" />
<trip id="15" depart="1" from="23810302#0" to="312901458#1" />
<trip id="16" depart="1" from="145846239#4" to="-433783936" />
<trip id="17" depart="1" from="-435704692#0" to="441514515#1" />
<trip id="18" depart="1" from="-435704690#0" to="48785299#0" />
<trip id="19" depart="1" from="435552722" to="435724099" />
<trip id="20" depart="1" from="27803812#0" to="26233241" />
<trip id="21" depart="1" from="23810320#15" to="-59667619#0" />
<trip id="22" depart="1" from="143926576#1" to="433780222#1" />
<trip id="23" depart="1" from="-435704687#1" to="-24102433" />
<trip id="24" depart="1" from="23810320#15" to="683816243" />
<trip id="25" depart="1" from="-435724019" to="56175732#4" />
<trip id="26" depart="1" from="145846239#4" to="-373852569#0" />
<trip id="27" depart="1" from="-373849350#0" to="337681339#1" />
<trip id="28" depart="1" from="483248512#6" to="26233492" />
<trip id="29" depart="1" from="-435704687#1" to="312901454" />
<trip id="30" depart="1" from="23810320#9" to="56237893#1" />
<trip id="31" depart="1" from="-23642579" to="194705195-AddedOffRampEdge" />
<trip id="32" depart="1" from="145846239#4" to="-373852569#0" />
<trip id="33" depart="1" from="435704692#3" to="-56401002" />
<trip id="34" depart="1" from="-56460697#2" to="26233017#1" />
<trip id="35" depart="1" from="-435703525" to="4476711#10" />
<trip id="36" depart="1" from="-5120694#1" to="26233428" />
<trip id="37" depart="1" from="231620087#0" to="26233078#3" />
<trip id="38" depart="1" from="253716333" to="24953260" />
<trip id="39" depart="1" from="-435704691#0" to="124532856" />
<trip id="40" depart="1" from="319358163#1" to="337681343" />
<trip id="41" depart="1" from="124538336-AddedOffRampEdge" to="433783934#1" />
<trip id="42" depart="1" from="-231620087#1" to="-56175732#2" />
<trip id="43" depart="1" from="24954034" to="312901453-AddedOnRampEdge" />
<trip id="44" depart="1" from="-435704692#0" to="-59667619#1" />
<trip id="45" depart="1" from="48785109#0" to="4476711#7" />
<trip id="46" depart="1" from="-435704692#0" to="-59667619#1" />
<trip id="47" depart="1" from="48785101#8" to="24102433" />
<trip id="48" depart="1" from="435552730#0" to="4476711#12" />
<trip id="49" depart="1" from="319358165" to="-56401002" />
<trip id="50" depart="2" from="319358163#1" to="433783936" />
<trip id="51" depart="2" from="319358170#0" to="-433783936" />
<trip id="52" depart="2" from="59678315#3" to="435724078" />
<trip id="53" depart="2" from="-218557533#1" to="433777243" />
<trip id="54" depart="2" from="435704684" to="-59667618#0" />
<trip id="55" depart="2" from="319358163#3" to="-435724099" />
<trip id="56" depart="2" from="23810320#15" to="-59667619#0" />
<trip id="57" depart="2" from="23810302#3" to="194705196" />
<trip id="58" depart="2" from="373854037#1" to="316762111#2" />
<trip id="59" depart="2" from="483248512#6" to="26233492" />
<trip id="60" depart="2" from="23810320#11" to="-373852569#0" />
<trip id="61" depart="2" from="4694846#1" to="-433780233#1" />
<trip id="62" depart="2" from="48785101#8" to="316764838#0" />
<trip id="63" depart="2" from="26233460" to="-24442647#1" />
<trip id="64" depart="2" from="435552722" to="-24213605#0" />
<trip id="65" depart="2" from="48785101#2" to="-59667618#0" />
<trip id="66" depart="2" from="435552730#0" to="316762111#5" />
<trip id="67" depart="2" from="23810320#12" to="435724099" />
<trip id="68" depart="2" from="48785101#7" to="-435724095" />
<trip id="69" depart="2" from="59678315#1" to="122890693#2" />
<trip id="70" depart="2" from="23810302#0" to="-433783934#0" />
<trip id="71" depart="2" from="23810302#1" to="24953260" />
<trip id="72" depart="2" from="435724121#1" to="-24102433" />
<trip id="73" depart="2" from="319358163#1" to="56237893#1" />
<trip id="74" depart="2" from="-435704692#0" to="-59667619#1" />
<trip id="75" depart="2" from="24442485#4" to="26233017#1" />
<trip id="76" depart="2" from="319358161" to="316762111#0" />
<trip id="77" depart="2" from="48785101#8" to="441514515#1" />
<trip id="78" depart="2" from="-435704690#0" to="-433783934#0" />
<trip id="79" depart="2" from="23810320#15" to="24989770" />
<trip id="80" depart="2" from="435704684" to="316764838#0" />
<trip id="81" depart="2" from="59678315#3" to="433783933" />
<trip id="82" depart="2" from="319358163#1" to="433783936" />
<trip id="83" depart="2" from="56460697#0" to="26233260" />
<trip id="84" depart="2" from="452188416" to="-24102433" />
<trip id="85" depart="2" from="-373849343" to="48785299#1" />
<trip id="86" depart="2" from="435704690#0" to="312901454" />
<trip id="87" depart="2" from="435552725#1" to="59667619#0" />
<trip id="88" depart="2" from="59678315#3" to="373852574#3" />
<trip id="89" depart="2" from="452188416" to="373852574#0" />
<trip id="90" depart="2" from="145857394#4" to="24442651#0" />
<trip id="91" depart="2" from="373854037#1" to="-683816243" />
<trip id="92" depart="2" from="48785101#8" to="122890690" />
<trip id="93" depart="2" from="24954034" to="-24213605#0" />
<trip id="94" depart="2" from="-435704692#2" to="-59682675#0" />
<trip id="95" depart="2" from="145846239#4" to="-373852569#0" />
<trip id="96" depart="2" from="319358163#3" to="-435724099" />
<trip id="97" depart="2" from="-435704692#3" to="122890693#2-AddedOffRampEdge" />
<trip id="98" depart="2" from="-373849357" to="683816243" />
<trip id="99" depart="2" from="435704691#0" to="373852574#0" />
<trip id="100" depart="3" from="-5120694#1" to="-433780233#1" />
<trip id="101" depart="3" from="435704684" to="-316764835#1" />
<trip id="102" depart="3" from="218557533#4" to="24442647#1" />
<trip id="103" depart="3" from="435552725#0" to="433783933" />
<trip id="104" depart="3" from="373849356#0" to="59667619#1" />
<trip id="105" depart="3" from="-435552721#0" to="4476711#14" />
<trip id="106" depart="3" from="24442485#1" to="435724115" />
<trip id="107" depart="3" from="319358165" to="194705196" />
<trip id="108" depart="3" from="23810320#16" to="56400789#1" />
<trip id="109" depart="3" from="-56460698#1" to="26233492" />
<trip id="110" depart="3" from="23810320#15" to="683816243" />
<trip id="111" depart="3" from="-435704692#3" to="620592789" />
<trip id="112" depart="3" from="319358163#1" to="373852574#0" />
<trip id="113" depart="3" from="435704691#0" to="59667618#0" />
<trip id="114" depart="3" from="143930348" to="-24442651#0" />
<trip id="115" depart="3" from="483248512#4" to="-433777240" />
<trip id="116" depart="3" from="-435552721#1" to="433783935" />
<trip id="117" depart="3" from="145846239#2" to="441514515#1" />
<trip id="118" depart="3" from="373854037#0" to="194705196" />
<trip id="119" depart="3" from="319358165" to="337681339#2" />
<trip id="120" depart="3" from="59678333" to="194705195-AddedOffRampEdge" />
<trip id="121" depart="3" from="-435704687#1" to="-24102433" />
<trip id="122" depart="3" from="435552725#0" to="433784889#2" />
<trip id="123" depart="3" from="48785101#3" to="316762111#4" />
<trip id="124" depart="3" from="59678315#2" to="435724099" />
<trip id="125" depart="3" from="435704690#1" to="-373852568#1-AddedOffRampEdge" />
<trip id="126" depart="3" from="-483248512#0" to="124471130#1" />
<trip id="127" depart="3" from="-435704684" to="-59667618#0" />
<trip id="128" depart="3" from="48785101#4" to="4476711#9" />
<trip id="129" depart="3" from="435552730#0" to="312901450" />
<trip id="130" depart="3" from="23810320#16" to="4476711#12" />
<trip id="131" depart="3" from="319358162" to="24953461-AddedOnRampEdge" />
<trip id="132" depart="3" from="435724121#1" to="435724044#1" />
<trip id="133" depart="3" from="190820979" to="48785299#1" />
<trip id="134" depart="3" from="4694846#0" to="35023161#0" />
<trip id="135" depart="3" from="24985341" to="316762111#2" />
<trip id="136" depart="3" from="48785101#6" to="-373852568#0" />
<trip id="137" depart="3" from="253716333" to="316764838#0" />
<trip id="138" depart="3" from="23810320#13" to="4476711#13" />
<trip id="139" depart="3" from="48785101#1" to="316762111#5" />
<trip id="140" depart="3" from="23810320#17" to="373852574#1" />
<trip id="141" depart="3" from="-435552721#1" to="-24213605#0" />
<trip id="142" depart="3" from="435704691#0" to="-683816244" />
<trip id="143" depart="3" from="48785101#9" to="316764835#1" />
<trip id="144" depart="3" from="23810320#9" to="433784889#2" />
<trip id="145" depart="3" from="59678315#2" to="4476711#14" />
<trip id="146" depart="3" from="-5120694#1" to="26233078#2" />
<trip id="147" depart="3" from="-435552721#1" to="-59667619#0" />
<trip id="148" depart="3" from="218557533#0" to="26233492" />
<trip id="149" depart="3" from="319358163#0" to="59667618#0" />
<trip id="150" depart="4" from="-483248512#0" to="124471130#1" />
<trip id="151" depart="4" from="124538336" to="316762111#3" />
<trip id="152" depart="4" from="190820979" to="4476711#13" />
<trip id="153" depart="4" from="483248512#6" to="438733288" />
<trip id="154" depart="4" from="319358170#0" to="-683816243" />
<trip id="155" depart="4" from="231307555" to="313500941#4" />
<trip id="156" depart="4" from="435704692#0" to="59667618#0" />
<trip id="157" depart="4" from="-435704687#1" to="312901454" />
<trip id="158" depart="4" from="319358165" to="-373852568#0" />
<trip id="159" depart="4" from="-48785109#2" to="-373852568#0" />
<trip id="160" depart="4" from="435552722" to="23805823#1" />
<trip id="161" depart="4" from="-435703525" to="312901458#1" />
<trip id="162" depart="4" from="145857394#3" to="-433777240" />
<trip id="163" depart="4" from="-435552721#1" to="433783935" />
<trip id="164" depart="4" from="435724121#1" to="433783932" />
<trip id="165" depart="4" from="48785101#5" to="4476711#12" />
<trip id="166" depart="4" from="48785101#5" to="-312901458#0" />
<trip id="167" depart="4" from="-373849350#0" to="-683816244" />
<trip id="168" depart="4" from="-24082316#1" to="313500941#4" />
<trip id="169" depart="4" from="319358165" to="-373852568#0" />
<trip id="170" depart="4" from="319358170#0" to="-683816243" />
<trip id="171" depart="4" from="48785101#8" to="122890690" />
<trip id="172" depart="4" from="319358161" to="-59667619#0" />
<trip id="173" depart="4" from="-435704684" to="24953461-AddedOnRampEdge" />
<trip id="174" depart="4" from="23810320#17" to="-59682675#0" />
<trip id="175" depart="4" from="435704691#0" to="24953260" />
<trip id="176" depart="4" from="-435551664" to="24213605#0" />
<trip id="177" depart="4" from="23810302#3" to="124532856" />
<trip id="178" depart="4" from="-435704690#0" to="-683816242" />
<trip id="179" depart="4" from="23810320#15" to="-59667619#0" />
<trip id="180" depart="4" from="124538336-AddedOffRampEdge" to="24220202#10" />
<trip id="181" depart="4" from="319358163#0" to="59667618#0" />
<trip id="182" depart="4" from="24442485#4" to="-24442704#0" />
<trip id="183" depart="4" from="124538336" to="316762111#3" />
<trip id="184" depart="4" from="-218557533#2" to="-433780233#1" />
<trip id="185" depart="4" from="48785101#8" to="316764838#0" />
<trip id="186" depart="4" from="23810320#12" to="194705196" />
<trip id="187" depart="4" from="56460697#1" to="438733288" />
<trip id="188" depart="4" from="-48785109#2" to="620592789" />
<trip id="189" depart="4" from="373849347" to="24953260" />
<trip id="190" depart="4" from="373854037#1" to="337681339#1" />
<trip id="191" depart="4" from="435552722" to="373852574#0" />
<trip id="192" depart="4" from="373849347" to="-373852569#1" />
<trip id="193" depart="4" from="23810320#17" to="4476711#7" />
<trip id="194" depart="4" from="145857394#4" to="26233241" />
<trip id="195" depart="4" from="-24082316#1" to="313500941#4" />
<trip id="196" depart="4" from="26233460" to="-56175732#2" />
<trip id="197" depart="4" from="-435552721#0" to="4476711#14" />
<trip id="198" depart="4" from="452188416" to="435724044#1" />
<trip id="199" depart="4" from="23810320#12" to="56401002" />
<trip id="200" depart="5" from="-231307554#3" to="124471130#0" />
<trip id="201" depart="5" from="59678336#1" to="48785299#0" />
<trip id="202" depart="5" from="319358161" to="316764839" />
<trip id="203" depart="5" from="435724121#0" to="48785299#0" />
<trip id="204" depart="5" from="190820979" to="433783934#1" />
<trip id="205" depart="5" from="-435704692#0" to="441514515#1" />
<trip id="206" depart="5" from="-24101466" to="433780235" />
<trip id="207" depart="5" from="48785101#9" to="316764835#1" />
<trip id="208" depart="5" from="59678315#2" to="-433783934#0" />
<trip id="209" depart="5" from="48785101#8" to="122890690" />
<trip id="210" depart="5" from="59678315#2" to="435724099" />
<trip id="211" depart="5" from="-373849350#0" to="337681339#1" />
<trip id="212" depart="5" from="319358165" to="-683816242" />
<trip id="213" depart="5" from="59678315#1" to="316762111#2" />
<trip id="214" depart="5" from="48785101#1" to="316762111#5" />
<trip id="215" depart="5" from="319358165" to="-683816242" />
<trip id="216" depart="5" from="23810303" to="194705197" />
<trip id="217" depart="5" from="48785109#2" to="316762111#5" />
<trip id="218" depart="5" from="-435552721#1" to="124532856" />
<trip id="219" depart="5" from="319358170#0" to="-683816243" />
<trip id="220" depart="5" from="23810302#0" to="312901454" />
<trip id="221" depart="5" from="-5120694#1" to="26233428" />
<trip id="222" depart="5" from="-435724017" to="24442647#1" />
<trip id="223" depart="5" from="-435704690#0" to="-24213605#0" />
<trip id="224" depart="5" from="-48785109#0" to="316762110" />
<trip id="225" depart="5" from="59678336#1" to="48785299#0" />
<trip id="226" depart="5" from="435704691#0" to="24953260" />
<trip id="227" depart="5" from="-218557533#3" to="433777243" />
<trip id="228" depart="5" from="-48785109#2" to="620592789" />
<trip id="229" depart="5" from="59678315#3" to="373852574#3" />
<trip id="230" depart="5" from="319358163#1" to="-683816244" />
<trip id="231" depart="5" from="-48785109#2" to="433783933" />
<trip id="232" depart="5" from="483248512#2" to="628761687#1" />
<trip id="233" depart="5" from="435552725#0" to="435724078" />
<trip id="234" depart="5" from="373849356#0" to="-433783934#0" />
<trip id="235" depart="5" from="23810320#9" to="433784889#2" />
<trip id="236" depart="5" from="24954034" to="312901453-AddedOnRampEdge" />
<trip id="237" depart="5" from="24985341" to="48785299#1" />
<trip id="238" depart="5" from="-435704690#0" to="-373852568#1-AddedOffRampEdge" />
<trip id="239" depart="5" from="145846239#2" to="337681343" />
<trip id="240" depart="5" from="373849347" to="24953260" />
<trip id="241" depart="5" from="319358163#1" to="56237893#1" />
<trip id="242" depart="5" from="190820979" to="435724095" />
<trip id="243" depart="5" from="319358163#1" to="435724099" />
<trip id="244" depart="5" from="48785101#8" to="441514515#1" />
<trip id="245" depart="5" from="23642579" to="194705196" />
<trip id="246" depart="5" from="435552730#0" to="59667619#0" />
<trip id="247" depart="5" from="24985341" to="48785299#1" />
<trip id="248" depart="5" from="59678336#1" to="48785299#0" />
<trip id="249" depart="5" from="48785101#1" to="24989770-AddedOffRampEdge" />
<trip id="250" depart="6" from="23810302#1" to="433783933" />
<trip id="251" depart="6" from="373854037#1" to="337681339#1" />
<trip id="252" depart="6" from="48785101#5" to="24213605#0" />
<trip id="253" depart="6" from="48785101#1" to="316764838#1" />
<trip id="254" depart="6" from="-79660683#0" to="56400789#1" />
<trip id="255" depart="6" from="23810320#14" to="56401002" />
<trip id="256" depart="6" from="48785109#0" to="373852574#1" />
<trip id="257" depart="6" from="48785101#4" to="-59667618#0" />
<trip id="258" depart="6" from="23810302#1" to="23888175#1" />
<trip id="259" depart="6" from="-435552721#1" to="-59667619#0" />
<trip id="260" depart="6" from="59678315#0" to="122890690" />
<trip id="261" depart="6" from="24082316#2" to="438733284#1" />
<trip id="262" depart="6" from="59678315#0" to="24213759#1" />
<trip id="263" depart="6" from="59678315#2" to="-433783934#0" />
<trip id="264" depart="6" from="-435704690#0" to="-683816242" />
<trip id="265" depart="6" from="48785101#6" to="-373852568#0" />
<trip id="266" depart="6" from="124538336-AddedOffRampEdge" to="122890693#2" />
<trip id="267" depart="6" from="373849347" to="122890690" />
<trip id="268" depart="6" from="48785101#3" to="316762111#4" />
<trip id="269" depart="6" from="145846239#1" to="24953260" />
<trip id="270" depart="6" from="59678315#1" to="316762111#2" />
<trip id="271" depart="6" from="-435704692#2" to="-59682675#0" />
<trip id="272" depart="6" from="-435704692#0" to="-59667619#1" />
<trip id="273" depart="6" from="-24101466" to="433780235" />
<trip id="274" depart="6" from="319358170#0" to="48785301#1" />
<trip id="275" depart="6" from="23810320#14" to="56401002" />
<trip id="276" depart="6" from="435551666" to="-683816243" />
<trip id="277" depart="6" from="190820979" to="56237893#1" />
<trip id="278" depart="6" from="435704687#1" to="-316764835#1" />
<trip id="279" depart="6" from="145857394#0" to="433780221#1" />
<trip id="280" depart="6" from="23810320#16" to="316762111#5" />
<trip id="281" depart="6" from="483248512#1" to="433780222#1" />
<trip id="282" depart="6" from="145857402#1" to="230770380#1" />
<trip id="283" depart="6" from="-435551664" to="24213605#0" />
<trip id="284" depart="6" from="-435552721#0" to="312901453" />
<trip id="285" depart="6" from="-435704692#2" to="-435724095" />
<trip id="286" depart="6" from="4694846#0" to="35023161#0" />
<trip id="287" depart="6" from="145846239#2" to="441514515#1" />
<trip id="288" depart="6" from="145846239#4" to="-373852569#0" />
<trip id="289" depart="6" from="59678315#0" to="122890690" />
<trip id="290" depart="6" from="435704684" to="316764838#0" />
<trip id="291" depart="6" from="24954034" to="312901453-AddedOnRampEdge" />
<trip id="292" depart="6" from="-435704691#0" to="683816243" />
<trip id="293" depart="6" from="23810302#3" to="194705196" />
<trip id="294" depart="6" from="48785101#8" to="316764838#0" />
<trip id="295" depart="6" from="-79660683#0" to="194705195" />
<trip id="296" depart="6" from="319358162" to="-316764836" />
<trip id="297" depart="6" from="4694846#1" to="-433780233#1" />
<trip id="298" depart="6" from="145857394#4" to="24442651#0" />
<trip id="299" depart="6" from="483248512#2" to="628761687#1" />
<trip id="300" depart="7" from="483248512#4" to="-433777240" />
<trip id="301" depart="7" from="-435704690#1" to="435724078" />
<trip id="302" depart="7" from="373854037#0" to="435724044#0" />
<trip id="303" depart="7" from="435704692#0" to="435724044#1" />
<trip id="304" depart="7" from="143926576#1" to="433780222#1" />
<trip id="305" depart="7" from="-483248512#3" to="-433777241" />
<trip id="306" depart="7" from="145846239#1" to="316762110" />
<trip id="307" depart="7" from="23810302#0" to="312901454" />
<trip id="308" depart="7" from="319358162" to="373852574#0" />
<trip id="309" depart="7" from="59678315#3" to="312901458#1" />
<trip id="310" depart="7" from="48785109#0" to="312901450" />
<trip id="311" depart="7" from="24082316#2" to="438733284#1" />
<trip id="312" depart="7" from="145846239#1" to="312901453-AddedOnRampEdge" />
<trip id="313" depart="7" from="23810302#1" to="-683816243" />
<trip id="314" depart="7" from="143930348" to="24442647#0" />
<trip id="315" depart="7" from="435704690#1" to="122890693#2" />
<trip id="316" depart="7" from="319358163#2" to="-59667619#0" />
<trip id="317" depart="7" from="24985341" to="316762111#2" />
<trip id="318" depart="7" from="23810320#17" to="-59667619#1" />
<trip id="319" depart="7" from="319358163#1" to="337681343" />
<trip id="320" depart="7" from="24117625" to="26233255" />
<trip id="321" depart="7" from="-143930348" to="26233258" />
<trip id="322" depart="7" from="435552725#0" to="433783933" />
<trip id="323" depart="7" from="23810320#8" to="-373852568#0" />
<trip id="324" depart="7" from="-231620087#1" to="-56175732#2" />
<trip id="325" depart="7" from="23810303" to="4476711#13" />
<trip id="326" depart="7" from="319358165" to="-59667619#1" />
<trip id="327" depart="7" from="319358161" to="312901453" />
<trip id="328" depart="7" from="56460697#2" to="313500941#2" />
<trip id="329" depart="7" from="23810302#3" to="620592789" />
<trip id="330" depart="7" from="23810302#0" to="312901458#0" />
<trip id="331" depart="7" from="-435703525" to="4476711#10" />
<trip id="332" depart="7" from="-373849343" to="24213759#0" />
<trip id="333" depart="7" from="-218557533#0" to="26233260" />
<trip id="334" depart="7" from="-483248512#2" to="-56175732#3" />
<trip id="335" depart="7" from="218557533#1" to="163148347#2" />
<trip id="336" depart="7" from="-56460697#2" to="-435724115" />
<trip id="337" depart="7" from="483248512#0" to="26233492" />
<trip id="338" depart="7" from="24117625" to="4694846#4" />
<trip id="339" depart="7" from="-218557533#2" to="-56175732#3" />
<trip id="340" depart="7" from="-145857402#1" to="433780221#2-AddedOffRampEdge" />
<trip id="341" depart="7" from="435724017" to="95349529" />
<trip id="342" depart="7" from="435650703" to="26233501" />
<trip id="343" depart="7" from="231307558" to="26233078#2" />
<trip id="344" depart="7" from="-218557533#2" to="24442538#2" />
<trip id="345" depart="7" from="231307554#3" to="26233260" />
<trip id="346" depart="7" from="-24442485#3" to="-433780233#2" />
<trip id="347" depart="7" from="-231620087#1" to="26233501" />
<trip id="348" depart="7" from="435650703" to="26233501" />
<trip id="349" depart="7" from="-24442485#3" to="26233492" />
<trip id="350" depart="8" from="24082316#0" to="230770380#0" />
<trip id="351" depart="8" from="435650705" to="26233501-AddedOffRampEdge" />
<trip id="352" depart="8" from="435724129" to="-24442651#0" />
<trip id="353" depart="8" from="-56460697#0" to="26233008" />
<trip id="354" depart="8" from="-435724019" to="230770380#1" />
<trip id="355" depart="8" from="145857394#0" to="26233501" />
<trip id="356" depart="8" from="435724017" to="95349529" />
<trip id="357" depart="8" from="483248512#4" to="-56175732#3" />
<trip id="358" depart="8" from="56460697#1" to="230770380#1" />
<trip id="359" depart="8" from="56460697#2" to="35023161#0" />
<trip id="360" depart="8" from="-218557533#2" to="26233258" />
<trip id="361" depart="8" from="483248512#6" to="163148347#1" />
<trip id="362" depart="8" from="-5120694#2" to="-24442651#0" />
<trip id="363" depart="8" from="5120694#1" to="24442651#0" />
<trip id="364" depart="8" from="-435650704" to="35023161#0" />
<trip id="365" depart="8" from="-231620087#0" to="24442538#1" />
<trip id="366" depart="8" from="435724020#0" to="4694846#5" />
<trip id="367" depart="8" from="-26233114#1" to="24442538#1" />
<trip id="368" depart="8" from="24442485#5" to="433780222#1" />
<trip id="369" depart="8" from="218557533#0" to="433780233#0" />
<trip id="370" depart="8" from="24442485#4" to="-24442647#0" />
<trip id="371" depart="8" from="-483248512#3" to="26233078#2" />
<trip id="372" depart="8" from="231307554#4" to="163148347#1" />
<trip id="373" depart="8" from="-5120694#4" to="26233008" />
<trip id="374" depart="8" from="218557533#3" to="438733284#0" />
<trip id="375" depart="8" from="56460698#0" to="433777240" />
<trip id="376" depart="8" from="-145857402#0" to="-56175732#3" />
<trip id="377" depart="8" from="-24117625" to="433780222#2-AddedOnRampEdge" />
<trip id="378" depart="8" from="143926576#1" to="433777240" />
<trip id="379" depart="8" from="231307558" to="433780233#0" />
<trip id="380" depart="8" from="-56460698#0" to="26233018#2" />
<trip id="381" depart="8" from="26233113" to="433780221#1" />
<trip id="382" depart="8" from="435724019" to="-433777241" />
<trip id="383" depart="8" from="-56460697#2" to="-24442704#2" />
<trip id="384" depart="8" from="-24117625" to="433780233#1" />
<trip id="385" depart="8" from="-24082316#2" to="438733288" />
<trip id="386" depart="8" from="-24101466" to="26233492" />
<trip id="387" depart="8" from="56460697#2" to="35023161#0" />
<trip id="388" depart="8" from="231307558" to="124471130#1" />
<trip id="389" depart="8" from="145857394#3" to="438733284#1" />
<trip id="390" depart="8" from="218557533#3" to="438733284#0" />
<trip id="391" depart="8" from="4694846#1-AddedOffRampEdge" to="433780221#2" />
<trip id="392" depart="8" from="-24082316#1" to="26233017#1" />
<trip id="393" depart="8" from="24442486#1" to="26233018#2" />
<trip id="394" depart="8" from="483248512#0" to="124471125#3" />
<trip id="395" depart="8" from="-483248512#2" to="-56175732#3" />
<trip id="396" depart="8" from="-143930348" to="-433777240" />
<trip id="397" depart="8" from="26233113" to="26233255" />
<trip id="398" depart="8" from="-24082316#0" to="433780222#2-AddedOnRampEdge" />
<trip id="399" depart="8" from="-24442486#0" to="26233018#1" />
<trip id="400" depart="9" from="24082316#0" to="124471125#0" />
<trip id="401" depart="9" from="56460698#0" to="433777240" />
<trip id="402" depart="9" from="-24117625" to="433780221#1" />
<trip id="403" depart="9" from="26233114#1" to="4694846#5" />
<trip id="404" depart="9" from="23699376" to="124471130#1" />
<trip id="405" depart="9" from="-24442485#1" to="-24442704#2" />
<trip id="406" depart="9" from="-24082316#2" to="26233255" />
<trip id="407" depart="9" from="483248512#6" to="24442651#0" />
<trip id="408" depart="9" from="483248512#4" to="-56175732#3" />
<trip id="409" depart="9" from="231307558" to="124471130#1" />
<trip id="410" depart="9" from="218557533#4" to="-56175732#3" />
<trip id="411" depart="9" from="4694846#2" to="26233241" />
<trip id="412" depart="9" from="435650703" to="26233501" />
<trip id="413" depart="9" from="26233460" to="433780221#2-AddedOffRampEdge" />
<trip id="414" depart="9" from="483248512#0" to="433780233#0" />
<trip id="415" depart="9" from="-56460697#2" to="26233501-AddedOffRampEdge" />
<trip id="416" depart="9" from="-24082316#1" to="628761687#1" />
<trip id="417" depart="9" from="-435724020#1" to="-433780233#0" />
<trip id="418" depart="9" from="-56460697#2" to="163148347#1" />
<trip id="419" depart="9" from="-24082316#2" to="438733284#0" />
<trip id="420" depart="9" from="-483248512#3" to="26233018#2" />
<trip id="421" depart="9" from="-435724017" to="623099272" />
<trip id="422" depart="9" from="-24442486#0" to="-24442704#2" />
<trip id="423" depart="9" from="26233260" to="26233501-AddedOffRampEdge" />
<trip id="424" depart="9" from="143926576#1" to="-24442704#2" />
<trip id="425" depart="9" from="27803812#2" to="24442704#2" />
<trip id="426" depart="9" from="24117625" to="24442538#2" />
<trip id="427" depart="9" from="435724017" to="26233255" />
<trip id="428" depart="9" from="145857394#1" to="433780235" />
<trip id="429" depart="9" from="-26233114#1" to="26233501" />
<trip id="430" depart="9" from="5120694#2" to="433780221#2" />
<trip id="431" depart="9" from="483248512#0" to="433780233#0" />
<trip id="432" depart="9" from="218557533#0" to="26233018#1" />
<trip id="433" depart="9" from="231307555" to="23825874" />
<trip id="434" depart="9" from="-145857402#0" to="-56175732#3" />
<trip id="435" depart="9" from="5120694#1" to="26233018#2" />
<trip id="436" depart="9" from="26233260" to="-24442647#1" />
<trip id="437" depart="9" from="-24442485#4" to="124471130#1" />
<trip id="438" depart="9" from="-231307554#4" to="26233078#3" />
<trip id="439" depart="9" from="-24442485#1" to="672861355#5" />
<trip id="440" depart="9" from="-23699376" to="433780221#1" />
<trip id="441" depart="9" from="-435650704" to="26233447" />
<trip id="442" depart="9" from="56460697#0" to="26233258" />
<trip id="443" depart="9" from="218557533#4" to="-56175732#3" />
<trip id="444" depart="9" from="24442486#1" to="124471130#0" />
<trip id="445" depart="9" from="-435724019" to="433777243" />
<trip id="446" depart="9" from="-24442486#0" to="433780233#2" />
<trip id="447" depart="9" from="-218557533#2" to="26233497" />
<trip id="448" depart="9" from="483248512#0" to="26233441" />
<trip id="449" depart="9" from="27803812#0" to="124471125#3" />
<trip id="450" depart="10" from="-483248512#1" to="433777240" />
<trip id="451" depart="10" from="26233470" to="-433777240" />
<trip id="452" depart="10" from="26233470" to="-24442647#0" />
<trip id="453" depart="10" from="218557533#2" to="26233428" />
<trip id="454" depart="10" from="-56460697#2" to="-435724115" />
<trip id="455" depart="10" from="24082316#2" to="24442651#0" />
<trip id="456" depart="10" from="483248512#4" to="24442538#1" />
<trip id="457" depart="10" from="231620089" to="-433777241" />
<trip id="458" depart="10" from="218557533#1" to="433780222#2-AddedOnRampEdge" />
<trip id="459" depart="10" from="435650704" to="433780222#1" />
<trip id="460" depart="10" from="145857394#0" to="124471125#2" />
<trip id="461" depart="10" from="-5120694#4" to="433780233#0" />
<trip id="462" depart="10" from="56460697#1" to="26233078#2" />
<trip id="463" depart="10" from="56460697#1" to="-56175732#2" />
<trip id="464" depart="10" from="-218557533#3" to="24442538#2" />
<trip id="465" depart="10" from="-56460697#2" to="-24442704#2" />
<trip id="466" depart="10" from="24442485#2" to="35023161#0" />